72

O	-2.0905908774716977	3.221824373169811	-1.3612075576603777
O	-1.841335347471698	1.8694712251698107	-1.6825098966603775
O	-0.8720748960716979	3.1224345531698106	0.4604780853396223
O	3.510601942528302	1.6996620091698107	-2.5734642046603775
O	2.0850682825283022	2.2339363591698107	-2.4770444746603775
O	2.032943192528302	0.06258540316981076	-2.4953899546603777
O	0.27232621252830225	1.7039650421698107	-3.1107557346603776
O	-1.0027058754716978	3.8165512931698107	-0.7892748255603776
O	0.25950265252830207	0.5039397621698107	-1.2837017836603777
O	-0.21150586247169778	0.8646553461698108	1.2806894353396223
O	-0.8272911124416978	1.2808263807698108	-0.8923236252603777
O	-0.6867621664716979	1.7540032901698108	0.37617631533962237
O	1.5580635725283023	1.1851445771698108	-3.4601076046603776
O	0.5328199125283021	-0.37638535683018914	-0.3652291396603776
O	3.298287062528302	0.4005516051698108	-2.028336364660378
O	0.8510483625283022	0.12955092316981065	0.8620490053396223
O	-0.18225575347169787	1.2339476280698107	2.4395661953396224
O	-0.14619105547169786	0.41672572616981074	-2.5799921446603777
O	0.048427868528302165	4.445303083169811	-1.5363354796603776
O	6.323556112528302	2.918672333169811	-12.487664184660376
O	8.161126782528301	-1.847624406830189	-11.896172484660378
O	8.6388634425283	-0.7843444668301893	-8.295527884660377
O	12.1491462125283	-2.1787538168301896	-8.507165394660378
O	8.5081336725283	-6.090699176830189	-7.170064004660378
O	-5.436132517471698	-1.6071212568301891	8.939921085339623
O	-1.849259867471698	-0.6528986068301892	8.261283385339622
O	0.4408243925283021	-2.0482770368301892	5.590599935339622
O	6.723560392528302	-2.2056081868301893	2.9037736753396226
O	10.513966912528302	-2.277137786830189	2.5837549953396226
O	5.577691002528303	-11.46877246683019	3.0716974353396225
O	0.5741207825283022	-10.34517546683019	1.1257966953396221
O	0.23022827252830214	-10.869644866830189	-2.6448107846603777
O	-1.4167321814716978	-9.32647736683019	-5.720050574660378
O	0.4477007025283021	1.9132656371698107	-14.076755584660377
O	0.9767581625283023	2.9476216331698106	-10.449598514660376
O	-2.072236977471698	1.1227874501698107	-9.058039754660378
O	-4.812881577471698	3.729002783169811	-8.635755684660378
O	-7.4569291674716975	1.0615641401698108	-8.096938644660378
O	-5.9933460574716975	-1.9291023068301894	-9.938997404660377
O	-3.8548929274716977	-4.842661916830189	-8.764738774660378
O	-4.807686607471698	-5.594309366830189	-5.185387704660378
O	-3.7627908474716976	-5.338260326830189	-1.5946559086603775
O	-3.5184533574716976	-1.8003368068301893	-0.3321753916603777
O	-4.060678927471698	-0.5361635668301892	3.225914885339622
O	-4.411555527471698	2.622632603169811	5.266747885339622
O	-6.034910037471698	3.622865723169811	8.511429565339624
O	-3.344480817471698	6.208690853169811	9.148921615339622
O	0.19619733252830207	5.0058601331698105	9.813563215339624
O	1.4719707425283022	8.11917042316981	8.055511095339623
O	0.24767030252830213	6.827985833169811	4.771854515339622
O	1.7888489625283022	3.3842091031698107	5.232674085339622
O	5.014071372528302	4.452544373169811	6.863088155339622
O	5.9518426725283025	6.117658343169811	3.5607642553396226
O	6.316540252528302	2.6488858031698106	2.0211565753396226
O	8.9162262325283	1.4685638071698108	4.507762545339622
O	11.5086568125283	3.524791073169811	2.6590188353396225
O	13.6366370125283	4.44135682316981	5.665323125339622
O	11.370641812528302	0.04793856316981082	9.351668115339622
O	8.760826982528302	-2.688962856830189	9.570158715339623
O	5.024841392528303	-2.228331506830189	9.324001115339623
O	2.091659122528302	-4.590179546830189	9.408400615339623
O	-8.140110817471697	6.492190323169811	-9.559589634660377
O	-10.077516277471698	3.826106333169811	-11.441356284660378
O	-13.626835687471699	-3.9787451768301887	-1.4628749686603777
O	-4.658091897471698	12.94067203316981	1.1101876853396222
O	-5.581692327471698	9.77564320316981	3.0510896653396222
O	-8.056705917471698	6.901085623169811	2.7998560953396225
O	-7.050896847471698	3.5969843631698106	1.2807121553396223
O	-8.698059807471699	0.21187038316981077	1.2841972953396223
O	-8.165196077471698	-2.2690330968301895	-1.5134530006603777
O	-9.048638547471699	-5.915039946830189	-1.5081753586603777
O	-5.625596247471698	-12.51695836683019	-0.6208810926603776
