83

O	-1.9184909426736843	3.6138954482631576	-2.277251807627369
O	0.5682163273263158	-2.6323561217368425	1.2762339123726312
O	0.6625807973263157	-1.5402711817368424	2.1611800723726313
O	1.8945103873263158	-1.7806437717368426	2.786211182372631
O	2.9574423973263158	-0.9855429017368424	2.4578165823726312
O	4.074242777326316	-1.3916828617368424	1.7312055823726311
O	4.1652481773263155	-1.0054941917368425	0.37491353237263114
O	3.511326027326316	0.11303351826315755	0.0515390923726311
O	2.9800840073263157	0.4305919192631575	-1.218996855627369
O	2.523786007326316	-0.4432869517368425	-2.1005315076273687
O	1.2880398273263158	-0.7492341817368424	-2.617654507627369
O	0.6723081673263157	-2.011798771736842	-1.9855026576273689
O	0.9597654973263158	-1.1900858017368423	-0.7086011046273688
O	2.0845746973263157	-1.7359543117368423	-0.5728285036273688
O	3.086556437326316	-1.6533513817368426	-1.5849679306273687
O	0.2599793413263157	0.05987654226315753	-0.6332879166273688
O	0.6500769773263159	1.3980559312631575	-0.4473078566273688
O	0.010894794326315793	2.5028174582631575	-0.8137356826273688
O	-1.062607070673684	2.2852995582631577	-1.5973759616273688
O	-0.9810459986736842	1.1553519932631575	-2.3233605176273686
O	-0.6304898173736843	0.08029013326315748	-1.584599964627369
O	3.240218767326316	0.9254751550631575	1.150250752372631
O	2.794239267326316	0.3603588722631575	2.3684885623726313
O	1.5056432073263157	0.7588408135631575	2.9073521623726313
O	0.4985022773263158	-0.1824856717368426	2.385983322372631
O	0.026088214326315806	0.4102321742631575	1.3999055223726313
O	-0.44864164767368425	-14.483662071736841	-7.38339945762737
O	5.606073957326316	-10.739070671736842	-0.6059920596273689
O	6.576275657326316	-7.193971331736843	-1.412250659627369
O	7.076463407326316	-8.214275931736841	-5.010509067627369
O	3.730162367326316	-10.038145571736841	-5.122980517627369
O	1.7868739973263157	-7.004441881736843	-4.033948837627369
O	3.494004417326316	-4.996982641736842	-6.904759317627368
O	2.938687857326316	-7.620978231736843	-9.482837347627369
O	-0.7158837566736842	-7.676894921736843	-8.42623275762737
O	-1.0843683666736843	-3.954809961736843	-9.152034257627369
O	-2.388721962673684	11.953032728263159	6.128829112372632
O	0.2759194783263158	10.832788418263158	3.698506052372631
O	0.36459943632631575	7.683321838263157	1.6694582823726312
O	3.879003257326316	4.050094108263157	-3.1504759376273688
O	5.515226977326316	2.9205506582631573	-6.35741890762737
O	4.268404417326316	4.673339648263157	-9.47440758762737
O	3.376222267326316	1.2470386482631575	-10.90685733762737
O	0.6831237973263157	0.7935075612631575	-8.347462817627369
O	-1.2648239786736841	3.9833341082631577	-9.13237364762737
O	-3.644379762673684	2.6156700982631573	-11.660534367627369
O	-4.841609242673684	0.008895182263157553	-9.22179636762737
O	-5.013776352673684	2.4791398582631574	-6.347414827627368
O	-7.077747802673684	5.134084688263157	-8.171430447627369
O	-9.683705442673684	0.17465599926315745	-6.807089747627369
O	-8.771052002673684	2.4313341182631576	-3.9064117576273687
O	-6.618435962673684	1.5397537902631575	-0.9591237928673688
O	-6.803284392673684	-2.1098352217368426	-0.06857715262736885
O	-6.034623452673684	-4.4711742517368425	2.841156772372631
O	-3.904421542673684	-7.5566768117368435	2.107714972372631
O	1.705325317326316	-13.734409571736842	4.951987492372631
O	1.5354068573263158	-11.256811271736842	7.82757958237263
O	5.286513457326316	-10.806133371736841	8.270432812372631
O	6.177508067326316	-7.213141541736843	7.48705425237263
O	2.996437917326316	-5.685481451736843	8.96858123237263
O	3.9253796373263157	-4.239498631736843	12.367391232372631
O	-1.4678480726736842	-6.313755861736842	11.08232253237263
O	-3.1425410926736843	-6.127923011736843	7.699586482372631
O	-4.675991152673684	-2.6476268417368427	7.392122652372631
O	-4.100430412673684	0.7182511642631575	5.713522902372631
O	-0.9400176036736843	2.6142539282631576	6.716723912372631
O	-0.4783670652736842	6.432052238263157	6.817126722372631
O	2.104716297326316	8.917017688263158	8.046004212372631
O	8.038834417326315	8.475064648263158	6.248668822372631
O	5.7584267573263155	8.139325788263157	3.216291952372631
O	10.361074207326315	6.2888623982631575	1.3088309023726312
O	7.746790977326316	4.113683788263158	-0.2975904856273689
O	7.784329427326315	5.8013571682631575	-3.682018657627369
O	10.984381707326316	3.9550575882631573	-4.542353497627369
O	3.7195928373263163	9.975413678263157	-6.688987897627369
O	2.319910977326316	10.537925758263158	-3.190384997627369
O	-1.2402090576736842	10.644895028263159	-1.8275719506273689
O	-2.9850510026736843	12.730452328263159	0.782196522372631
O	-3.512027912673684	2.195545368263158	10.75055773237263
O	-7.181254802673684	1.6941181862631574	9.86363483237263
O	-8.867736122673685	-1.7057171517368424	9.377744532372631
O	-11.834322092673686	-0.5896764617368424	7.264988582372631
O	-11.294398092673685	0.6272764732631575	3.6762113723726313
