79

O	-0.4974089063529412	1.9062036418235297	3.1049637935098042
O	-1.9681422813529412	1.4601507018235296	3.155965803509804
O	-2.3637848823529413	1.5309018618235295	1.7920398735098038
O	0.3458389036470588	1.3164040518235296	2.180061553509804
O	1.6668563636470586	0.7682215688235297	2.595488823509804
O	-0.2085753263529413	0.4493877598235296	1.240719843509804
O	-1.5086478253529414	0.6796908808235296	1.0778025435098038
O	-2.2720206673529413	-0.36491307017647034	0.31292415550980396
O	-1.2465833043529413	-1.2879825181764704	0.16043490880980393
O	-0.22588787635294127	-1.0232744321764704	0.9786060485098039
O	-0.09370502635294131	-1.9647313281764704	1.824354173509804
O	-1.7623944784529413	-2.61789558817647	0.21801566750980392
O	-3.040512706352941	-2.46543726817647	-0.443756287490196
O	-3.924571806352941	-1.7144899581764705	0.5083383675098039
O	-3.8612846163529415	-2.0394194281764704	1.8931224035098038
O	-2.5643323633529413	-1.7696069781764705	2.335886953509804
O	-1.9364548793529412	-3.0041867681764702	1.6149324435098038
O	2.3410351636470583	1.9608605318235297	3.116958053509804
O	-4.003650966352941	-3.4336464781764704	1.951255263509804
O	-5.482595936352941	-3.5722624081764702	1.9921907535098038
O	-5.462103086352942	-3.2915084781764703	0.5411305715098039
O	-5.362805706352941	-4.58742389817647	-0.19189404249019607
O	-3.945579286352941	-4.99110153817647	-0.03135018509019608
O	-3.4570772563529415	-4.524309468176471	1.2368981635098037
O	2.4519046236470583	0.3908795778235296	1.6670232535098037
O	-6.405915776352941	-5.202742778176471	0.27331166850980393
O	-5.459576936352941	-4.34676367817647	-1.494250246490196
O	-3.2351556763529414	1.1302907618235296	3.701422353509804
O	-11.12633113635294	-5.62039977817647	3.324039773509804
O	-9.87069108635294	-8.02207526817647	5.957660083509803
O	-10.71060667635294	-11.10453842817647	3.886533073509804
O	-9.052220416352942	-9.65485748817647	0.808665901509804
O	-5.974946256352942	-8.94162391817647	2.948425943509804
O	-3.252916016352941	-11.53140282817647	-1.0829355364901962
O	9.87399016364706	2.44502773182353	1.8666349735098038
O	7.646561043647059	-0.5857695061764704	1.3050155435098039
O	5.074302933647059	-6.3112371281764705	3.819214963509804
O	4.6313538836470585	-9.55785205817647	5.748679873509803
O	8.27282826364706	-10.26446012817647	-3.971647046490196
O	6.240049963647059	-5.79571584817647	-6.406794676490196
O	2.8520394936470588	-6.3824817281764705	-8.065331816490197
O	-0.47964303635294137	-4.64965411817647	-8.648504646490196
O	-3.6347243063529415	-6.40055941817647	-7.4510556764901965
O	-10.94472529635294	-2.3046622781764703	-4.7313636364901965
O	-12.02919093635294	-1.5379656381764704	-1.1773130364901963
O	-9.06369633635294	-0.7582333941764703	0.9545640085098039
O	-6.843936136352942	0.8282360818235295	-1.730412946490196
O	-7.324380656352941	4.54752155182353	-1.1189937064901962
O	-5.913305956352941	5.43478089182353	-4.519387696490196
O	-6.690481396352942	2.3446119118235296	-6.532602886490197
O	-4.671631456352941	-0.7652882251764703	-7.205165906490197
O	-1.0611255893529412	0.26007205082352963	-7.633244536490197
O	2.2564477336470583	0.08987279382352964	-5.787273396490196
O	2.3503252936470584	2.07679039182353	-2.528138006490196
O	5.1954613036470585	3.5951938318235297	-0.681432605490196
O	6.082720873647059	5.83585460182353	2.198097623509804
O	8.92186846364706	8.21172964182353	2.933264333509804
O	8.748538663647059	7.52492487182353	6.648465433509804
O	4.261264113647059	4.19176934182353	7.895641173509803
O	5.758719093647058	1.1643848818235296	6.147893953509803
O	6.768119323647059	-0.7797774181764703	9.215137013509803
O	3.1404045336470583	-1.1781522311764703	10.110231923509804
O	2.6349647636470586	-3.5593538881764704	7.096193833509804
O	5.310267933647059	-5.97630116817647	8.373236853509804
O	2.7201563436470586	-7.300938878176471	10.800865123509803
O	11.488615563647059	-7.27432785817647	6.524136923509803
O	11.20949886364706	-3.94505185817647	4.725635363509803
O	-9.00504395635294	8.69380829182353	-1.0441941664901961
O	-9.863173286352941	8.582562901823529	-4.731246916490196
O	-9.90322242635294	5.53621590182353	-6.981009506490197
O	2.1837159336470586	9.05619983182353	-10.037760276490197
O	-0.8933516393529413	11.20894207182353	8.911516903509803
O	1.9283785436470586	10.42117417182353	6.4562376335098035
O	2.6233419236470583	10.80689577182353	2.739756003509804
O	2.1326244036470587	7.8802566418235305	0.3619990205098039
O	3.328640103647058	7.59261552182353	-3.238312276490196
O	1.4687169336470587	5.42375403182353	-5.753723506490196
O	2.6621832936470584	4.19228773182353	-9.087180766490196
O	0.5432442536470588	2.2571970318235297	-11.612718076490196
