76

O	-1.7718276131176474	0.35965053558823507	6.119697485500001
O	-2.661113326117647	-0.6894397214117649	1.4025388955
O	-4.105250866117648	-0.3624329089117649	3.0062081855000002
O	-2.479945236117647	0.694673543588235	4.966849785500001
O	-0.5008017491176473	-1.4015044684117648	2.6611418555
O	-0.8153559601176472	-0.6432486604117649	5.9371440055
O	0.9750473138823528	-1.234069148411765	4.1042188055
O	1.8635879038823526	-1.542801006411765	-0.6676828774999999
O	1.0664617738823525	-2.998892866411765	-2.7113800045
O	1.5302841738823527	-0.9995606134117649	0.5665788645000001
O	3.301404163882353	-2.9983367064117648	0.3451132595000001
O	3.745354123882353	-3.447731536411765	-3.7716217345
O	2.658165973882353	-3.044373996411765	-4.7072174245
O	3.346394913882353	-2.526416856411765	-2.6110781645
O	1.3462145638823528	-3.224395166411765	-4.0823974445
O	2.576810063882353	-2.798973616411765	-0.7633720154999999
O	1.763286273882353	-1.7236249664117649	1.7241447555
O	-2.117390906117647	0.17187090658823506	3.7658181855
O	-0.15055652911764728	-0.7394478064117649	4.7017787855
O	2.6204177838823526	-2.795213876411765	1.5420525755
O	-0.9796805307176473	-0.5670193714117648	3.6289613555
O	0.8557621138823528	-1.457709226411765	2.8105114555
O	2.2244872038823527	-3.408233436411765	-1.9884534344999998
O	-3.027981766117647	0.0830652525882351	2.5875052955
O	2.948234363882353	-3.438116196411765	2.7066622755
O	11.092638103882352	-7.590089836411765	-11.1633501945
O	7.283917173882353	-8.551614886411764	-3.2369281145
O	4.750600253882353	-11.286148386411766	-3.8914092744999995
O	5.103376223882353	-11.077095386411765	-7.680253134499999
O	4.869630043882353	-7.279063416411765	-7.563127554499999
O	1.722626873882353	-7.705685546411765	-5.449578914499999
O	0.2627478138823527	-9.655932156411765	-8.2545386645
O	1.3042401938823527	-7.162648696411765	-10.940425894499999
O	-0.5319125991176472	-4.290584816411765	-9.2461965445
O	-8.901580176117648	4.089073943588235	6.0362117055
O	-7.710109226117647	2.523542773588235	2.8116163755
O	-7.746528776117647	-2.991404556411765	-1.1847990545
O	-8.974448086117647	-6.050496236411765	-3.0907885845
O	-9.676175576117647	3.103373453588235	-7.935775804499999
O	-5.767328746117647	6.112612143588235	-5.5844558945
O	-2.4221042261176473	5.921419923588235	-7.381280694499999
O	1.3106479238823525	5.895436093588235	-6.7061622944999995
O	3.3461322138823526	3.009627523588235	-8.1493360345
O	10.441113703882353	-2.341664756411765	-7.6171719845
O	10.512691503882353	-0.4781352123117649	-4.300728094499999
O	10.691786803882353	-3.572866046411765	-2.1040887745
O	7.5749692838823535	-3.852697166411765	0.012828770500000114
O	7.043200933882353	-0.11253777241176488	0.4947085675000001
O	8.373941803882353	0.713531443588235	3.9721696455
O	8.235116053882352	4.434517533588235	3.2753989855
O	8.600936603882353	4.578048853588235	-0.5118483514999999
O	6.008233413882353	4.680635403588235	-3.2863004945
O	3.068270333882353	6.695146293588235	-2.0299919245
O	-0.4631687501176473	6.3140466335882355	-0.8210668845
O	-0.8588900151176473	4.612034153588235	2.4763523055
O	-3.6503632961176473	4.995007483588235	5.0462916055
O	-4.479807136117647	3.7167956635882353	8.5412187655
O	-6.504070106117647	5.144098473588235	11.426121205500001
O	-7.547322946117647	1.691906733588235	12.6018297055
O	-4.752524986117647	-2.4121805064117647	9.594125355500001
O	-6.6962417261176475	-1.598260466411765	6.4331996255
O	-9.077844636117646	-4.5091872564117645	6.441095075500001
O	-6.086058286117647	-6.826138456411765	6.032401695500001
O	-5.735525296117647	-5.634445216411765	2.4633635255
O	-9.283079416117648	-6.530374246411765	1.3703956455000001
O	-8.104527726117647	-10.109829276411764	1.0960228615
O	-14.702663096117647	-3.051602476411765	0.16904361600000012
O	-12.922278096117648	-0.3341861465117649	2.1139834055
O	12.618750003882353	5.014310083588235	1.5620714455
O	11.796934003882352	8.718544343588235	1.7498890255000001
O	-0.3541802381176473	0.21960624258823508	13.827495005500001
O	0.28045040388235276	4.441196343588235	8.847511585500001
O	0.15951384388235268	7.737235393588236	7.0075985855
O	1.8628065438823527	8.211403463588235	3.6561629255
O	1.3182784938823529	10.977078113588234	1.1346466885000002
O	3.315182613882353	11.454640413588235	-2.0641505445
