83

O	-4.451801416351852	-3.463742729203704	-3.4154715832222227
O	-4.099232136351851	-3.187296959203704	-2.0730340332222226
O	-2.8442835963518514	-2.573090859203704	-2.0427656832222225
O	-1.9043492823518515	-3.3524598692037038	-2.7315555432222225
O	-2.1813422123518516	-3.428933339203704	-4.1133358932222235
O	-3.524784146351852	-3.633540289203704	-4.404764603222223
O	-2.5173559783518518	-1.838238389203704	-0.9429554832222229
O	-1.1610674403518515	-1.666462829203704	-0.7890972092222228
O	-0.24572996635185151	-2.416852289203704	-1.451908253222223
O	-0.5980340763518517	-3.472584039203704	-2.2429151532222225
O	0.23511121364814835	-4.126602689203703	-2.9094275932222224
O	-0.8651391073518516	-0.4441041232037039	-0.6079500512222229
O	-3.1991787463518513	-1.784136899203704	0.3066447827777772
O	-2.6314711163518516	-2.461012709203704	1.492973486777777
O	-1.7445388993518516	-1.8628365692037039	2.497694356777777
O	-2.0454512843518518	-1.6939364792037042	3.9565643367777774
O	-1.3395714233518516	-0.5262629002037038	4.308826706777777
O	0.018029803648148324	-0.991605709203704	3.8863816767777775
O	0.16753971364814846	0.02673569379629609	2.7642559967777776
O	-0.3253295663518516	1.129021691796296	3.2440067567777775
O	0.07383356364814841	1.2136908927962962	4.719827546777777
O	-1.0652024673518516	0.33428989489629607	5.3284569067777765
O	-1.7275374283518516	1.644684610796296	3.1604912067777775
O	-2.7251182863518517	1.1272887407962962	2.3998189267777774
O	-3.8525993263518514	0.6873392237962961	3.0947759867777775
O	-4.137493696351852	1.1436790107962962	4.377346146777777
O	-3.4786212563518517	2.3062755807962962	4.6828567667777765
O	-2.2042586063518517	2.363118700796296	4.2227932067777765
O	-1.4011321643518517	-4.4883616592037034	-4.571782763222223
O	-6.4504803963518516	0.2449954457962961	10.977369996777776
O	-3.9227545563518516	-2.155771279203704	9.528542186777777
O	-2.1118794433518517	-2.089034159203704	12.810841696777777
O	-2.176264164351852	1.716335900796296	12.962858896777776
O	-0.4681003863518516	2.0557373207962963	9.633144896777777
O	2.303742003648148	-0.28213100620370396	10.819919896777776
O	4.987651723648148	-3.033861839203704	-10.779731203222223
O	5.300947763648148	-4.834396519203704	-7.481597173222223
O	4.791550053648148	-3.368928859203704	-4.018551603222223
O	5.025465553648148	-4.423767969203704	2.6535323267777775
O	6.225645313648148	-5.550457629203703	6.100763756777777
O	9.953441633648147	-5.258805029203703	6.750437236777777
O	7.697593533648148	-0.33067363020370394	7.171295096777777
O	10.911685333648148	-0.046244915203703885	5.038858026777777
O	9.650058133648148	4.890377830796297	6.4538628967777765
O	9.182225933648148	3.887794980796296	2.8201798367777773
O	9.44221313364815	9.086893490796296	3.0750279567777774
O	8.553874733648147	7.195408450796297	-0.11884308322222283
O	5.288397873648148	5.355273870796297	-0.7768121302222228
O	2.3896316636481485	7.302093400796297	0.9351659607777771
O	-1.4025617123518517	7.648630220796297	0.6811937777777771
O	-3.458469386351852	7.149307490796296	3.8732386067777775
O	-11.144137656351852	5.084625070796297	7.724549556777777
O	-11.712728466351852	4.093560510796296	4.080888096777777
O	-12.771969166351852	0.515294640796296	4.813967706777777
O	-10.346341216351853	-1.959450819203704	3.3372149767777772
O	-9.484592676351852	0.2226768067962961	0.29588066377777716
O	-11.24089455635185	-1.339081369203704	-2.6192731332222228
O	-10.502697366351853	1.661767740796296	-4.825137883222223
O	-10.015721416351852	4.4668733507962965	-2.3474066432222225
O	-6.912397896351852	5.887647270796297	-0.7079062362222228
O	-4.0244261563518515	5.553112180796297	-3.1891134932222225
O	-0.8746455533518516	3.596911530796296	-3.8785113532222226
O	-1.4898271043518516	-0.018673499203703925	-4.782883543222223
O	0.6066902836481485	-2.207577479203704	-7.056596603222223
O	0.4636701636481484	-5.659325779203703	-8.732042753222222
O	1.8996650936481485	-7.173480459203703	-11.817993203222223
O	-0.27795725635185153	-10.731006569203704	-5.0868087832222235
O	2.3725477236481485	-8.450630939203704	-3.6013407932222226
O	1.2343482636481484	-11.592211569203704	0.5163449887777771
O	1.8499212136481482	-8.162569079203704	2.0682371367777774
O	5.3731369636481485	-8.968967619203704	3.2836682867777776
O	3.880318343648148	-10.961390769203705	6.139570516777777
O	11.339673033648147	-7.171539949203703	1.266435546777777
O	9.551667733648149	-6.2046235692037035	-1.912586933222223
O	9.681943733648147	-3.184628179203704	-4.167442003222223
O	-14.288569766351852	4.339814110796296	-3.8279383532222226
O	-4.120161676351852	-4.184494199203703	-9.071045453222222
O	-3.124113586351852	-0.7259221692037039	-10.150689703222223
O	-3.9007576463518516	2.3498617007962963	-8.138596863222222
O	-2.4243129773518515	5.823296380796297	-8.469373573222223
O	-3.5759879763518514	8.868813040796296	-6.511458963222223
O	-0.45057617635185165	11.014458230796295	-6.8146425832222235
O	2.715619403648148	10.058085880796295	-4.928666483222223
