31

O	28.945584171350294	13.811745018764263	24.480312283268727
O	27.8331022537365	14.177999189355129	23.66997389058188
O	30.550676499320794	16.729661998430203	24.236469234950818
O	24.931916736913685	6.982599650446858	26.078868033655908
O	25.634690492804864	7.822512219296401	26.94640187552466
O	25.21821883447776	14.144132063779896	26.8582473716665
O	26.215328304661192	13.902684495503674	27.925606063143967
O	24.09894687336434	7.492276322467006	25.079868062851283
O	25.61057378677894	9.208737499648025	26.790944790700205
O	26.328527716855092	13.398512038419694	25.279559777447446
O	29.38409568601442	17.203392866120172	25.114663250149043
O	29.274954948638214	15.154443927177606	26.30952368562642
O	29.997102094094146	14.601411939044166	25.071859524737103
O	24.571202595486767	11.810339849362919	25.81644550933561
O	28.61091983138717	12.873341080272667	25.457341501302984
O	25.145068612200696	13.12208449354359	25.89252426607206
O	27.428113411459655	13.374374430180964	27.490768424287943
O	27.487364277652375	13.55930716703795	26.13668841762376
O	23.911672388850263	9.337009155983258	23.553724107430217
O	25.55409538732445	11.055553203425488	23.877318448548333
O	27.66009096879411	15.536076814078704	24.40319494753521
O	27.46658185434884	16.306754607454625	23.499812715005827
O	24.724796148191924	10.33424160737073	23.07992272971428
O	28.36065277536409	11.678099816254338	25.374650339284557
O	22.646732583165353	9.314656296035398	23.467625264667923
O	26.365913464506445	11.70495522371431	23.27909892556569
O	24.540118350925113	8.746754950312214	24.651118294831658
O	25.391325062602256	9.512408371400285	25.467464434235204
O	28.494824641669947	16.02645887096155	25.41351725593264
O	25.40430535796102	10.82738158737603	25.17930500623435
O	27.635109837671052	12.062522154194244	27.899027084893905
