26

O	25.815030289166096	16.777516602648905	19.04600711739306
O	29.587774724797786	14.808880692416619	25.348189641011064
O	28.859015767939145	13.693717878275734	24.889925354569698
O	28.372721907437178	13.153853781261937	26.089157785419648
O	27.043347260443753	13.296803957688276	26.375830350652773
O	26.517199928702745	14.108684881321544	27.377915502892918
O	25.929500494040457	15.33761390071211	27.00202371479946
O	25.440668848651995	15.383960045174423	25.76017625955221
O	25.31274593303322	16.53979967042216	24.957061382721772
O	26.10580454642158	17.597177353613574	25.00162548801157
O	27.026115711715143	18.16003886114267	24.15056567317107
O	28.479646417071653	17.835424281535325	24.543865362719384
O	27.902127553805947	16.404335053977757	24.461542322009468
O	27.62814471907857	16.410646185376386	25.688936285532094
O	26.755125838793944	17.384581850371486	26.2585890096922
O	27.413107287306726	16.031891271752023	23.16542372794935
O	26.188822748772743	15.541351484085327	22.677584706450094
O	25.693509672076537	15.63291291012067	21.448925800330414
O	26.39772000570191	16.435671402595073	20.628268145381927
O	27.071965069165177	17.40680429419966	21.27074910611529
O	27.79256121931287	16.94363767844124	22.315082706160016
O	25.191461406584825	14.123068727186407	25.22279687169694
O	26.11413344436795	13.066944921487638	25.411572683042078
O	26.721505190463134	12.437776366967757	24.251879562064225
O	27.976632018463125	13.1556852930496	23.96636723024972
O	27.653777687386995	13.971100717693554	23.084493267770956
