75

O	-3.3928440615090905	2.5784168993254544	-1.172299273111636
O	-3.052649341509091	1.9113707093254542	0.00359036588836395
O	-2.9181919215090906	2.1049850193254542	-2.402034183111636
O	0.009278038490909246	-2.956717180674546	-2.7031033831116362
O	2.1395655184909095	-3.6138077006745455	-1.7210022731116361
O	-0.14168493150909067	-3.0200212306745455	-1.187654953111636
O	2.1800545084909095	-2.4929358106745454	-0.761091114111636
O	-1.6559541927090906	0.21119671932545425	1.048901836888364
O	0.6048112584909093	-0.6440438006745459	-1.409577503111636
O	-2.470853606509091	0.6931238283254543	-0.08551633421163606
O	-0.4475889515090907	-0.5913752506745458	-2.442610893111636
O	-2.1179325635090906	0.9762128953254543	-2.490014423111636
O	-2.3283801885090907	0.18680895032545425	-1.393863393111636
O	-0.9277818505090907	-1.0619210606745457	1.231816786888364
O	-1.6353388473090906	-0.9353990006745458	-1.778913903111636
O	1.3197175384909094	-3.2411514006745454	-2.745733013111636
O	-1.0558118075090905	0.38564551782545425	-3.151048793111636
O	0.8212095984909094	-1.9612909106745458	-0.8426929291116361
O	-2.3732008045090907	0.010617741325454233	2.034353196888364
O	1.2583393884909095	0.02925199332545425	-0.6280845551116361
O	2.9971592384909096	-7.7053424706745455	-10.860836803111637
O	2.2050408384909095	-10.948895360674546	-9.090988223111635
O	5.813956368490909	-12.189406860674547	-9.200311813111636
O	7.0805697984909095	-8.809952700674547	-7.970306813111636
O	4.57432713849091	-8.939794430674546	-5.157688613111636
O	6.100073958490909	-12.234424060674547	-4.140658343111636
O	8.816803968490909	-7.984993640674545	-1.9190505631116361
O	-3.219627391509091	7.326819449325455	7.899704986888365
O	-3.5457069615090906	3.5815942293254546	7.509757626888364
O	-0.9352191125090906	1.1876377833254543	6.189612936888364
O	0.7581279084909092	-5.283725190674546	4.807476496888364
O	1.2062896984909095	-9.054175190674547	5.399596666888364
O	8.88117646849091	-2.9833115206745457	8.947994526888364
O	8.44458926849091	1.4950116793254542	5.816291346888364
O	10.58551596849091	1.3923356833254543	2.663450616888364
O	10.454316168490909	2.3572629193254544	-1.0132081371116362
O	10.93883766849091	-0.3546718896745457	-3.648176163111636
O	4.221711188490909	-2.048316400674546	-12.873990203111637
O	1.8283923884909092	-2.2336244506745455	-9.838796873111637
O	2.608518198490909	1.2061339573254541	-8.516935713111636
O	-0.018805701509090555	3.6117587493254546	-9.816002693111637
O	1.9740050184909093	6.6495503393254545	-8.675561423111636
O	5.524856978490909	5.302573929325455	-8.713750493111636
O	7.64826262849091	3.6918104693254543	-6.018500523111636
O	6.77354404849091	5.364014499325455	-2.740644833111636
O	4.971580518490909	4.775279939325454	0.518785133888364
O	1.2348940684909095	4.386800129325454	0.12889244788836396
O	-1.4531865485090907	5.159816509325454	2.724200796888364
O	-5.273817691509091	5.307689249325454	3.013506216888364
O	-7.748296651509091	7.193507779325454	5.147682506888364
O	-10.203217461509091	4.283008569325454	5.080806046888364
O	-9.209730891509091	1.0466153163254543	6.832543366888364
O	-11.07549591150909	-0.8614133906745458	4.106336986888364
O	-8.46550100150909	0.08390295532545422	1.513772606888364
O	-5.580979821509091	-0.8983123506745458	3.775782416888364
O	-7.072519071509091	-4.024742340674545	5.3041348168883635
O	-6.905991881509091	-5.5595521906745455	1.795829456888364
O	-3.1412087415090904	-5.718561550674545	1.964281506888364
O	-3.0856486015090905	-7.751318380674545	5.208020686888364
O	-3.9385813815090907	-10.824443660674547	3.176383636888364
O	-5.9638741215090905	-12.654724860674547	5.835140386888364
O	-3.844431511509091	-9.344645030674547	10.560262796888363
O	-1.6549768823090907	-6.391245700674546	11.451878696888365
O	-2.1855453475090907	-2.819402240674546	10.377117096888364
O	-0.29961972150909055	0.3879014264254542	10.976200196888364
O	-2.2742755765090905	6.3842931693254545	-12.436423603111637
O	3.1184676884909095	14.291231039325453	-1.7522170531116361
O	-12.539323731509091	3.4755768893254544	-5.232882353111636
O	-10.63613488150909	5.046009569325454	-2.332669873111636
O	-8.15490965150909	7.855255099325454	-1.718675613111636
O	-4.457667701509091	7.079591709325454	-1.414625933111636
O	-1.5871080487090907	9.267188159325453	-0.27508419311163607
O	1.9396977884909092	8.700364929325454	-1.537820323111636
O	5.172822458490909	10.076932639325454	-0.11170533597163605
O	8.597864568490909	9.651527099325454	-1.717930503111636
