35

O	25.79632423210857	12.92939599828026	25.746683193615855
O	26.304396674293326	13.724017036809414	24.810127476137694
O	30.08416494172137	13.512269404225185	26.19099102699351
O	24.560693468712667	10.45239969636199	28.306344433867665
O	25.596314785634366	9.856082857094572	28.889282438002827
O	24.30376847104612	9.928425094873763	26.974149123897398
O	27.210708918271653	14.826363283958734	29.382048080608893
O	28.696692262628808	13.48994714155701	30.39912663381824
O	28.128225021972224	14.933781977501358	28.389094814936506
O	29.436182088575546	13.455800719943852	29.206498339999666
O	29.122515718010053	14.107868779231424	25.205441648884914
O	30.170033571339886	15.738071385981279	26.788980752678825
O	27.826199763156396	10.715801470650796	28.97032853089011
O	28.745806091081462	15.95209577652949	26.468028631430393
O	28.68875613056181	11.562795151065922	28.114230706254897
O	27.615254151721516	11.150519905195306	25.09890677866008
O	26.480789700670947	12.398850396869754	27.982250587633445
O	25.74226200354897	13.15949077782658	27.082791891675857
O	25.382801763832163	9.953904984159575	24.793434530308986
O	30.319139930260846	14.35236727354835	27.277945563623636
O	26.8654577133373	14.865742291874119	25.46082863254612
O	26.148762270853595	15.142079809291355	26.48976781046221
O	26.61141222870471	10.489035522729885	24.40525681461691
O	24.585863168449656	13.400303799095909	27.35844736210364
O	24.67167274155397	11.182347326340103	24.945696501966296
O	25.974093455720748	13.489225569069227	23.46831578329754
O	27.38468301039166	13.807518797357613	30.27500233193108
O	29.47801431313093	14.599452977178915	28.494834435717895
O	26.7044889423592	10.321581567581667	28.218071476994826
O	25.550638114642833	9.747417026990908	26.27585156713632
O	26.697611446991246	10.347771566398617	26.825020297496
O	27.444520896358036	11.636557920948746	26.349300259886366
O	28.170612207751944	14.825437804607425	25.888444758410273
O	27.729004254963048	12.253675355735806	27.401094623343198
O	26.366635486776833	12.951001993296478	30.662700927295695
