88

O	6.114726927327273	-2.6463934735963632	-2.4831819745454546
O	5.473763767327273	-3.7735716935963635	-2.0495115545454548
O	3.6448270673272725	-2.3052075135963634	1.8830364454545454
O	3.4356874773272725	-2.902579643596363	3.2037603954545455
O	5.899480827327273	-1.3877748135963635	-1.9621658845454546
O	4.726086537327273	-3.646222533596363	-0.8809353965454547
O	1.4645869473272723	-2.2269112335963634	1.5414769754545454
O	-1.0844838916727275	0.03383823940363684	4.652224635454545
O	-2.7685949426727277	-0.37184256359636325	3.0972105454545455
O	-0.9628205906727276	-1.4274952435963635	4.223476855454545
O	-1.7677110926727277	-0.8821876835963632	2.025721005454545
O	2.2261607373272723	-3.428342193596363	-0.1243997086454547
O	-1.4848697126727277	1.3900912094036368	2.6194250554545455
O	0.6744638353272725	-0.46350396359636326	2.8690425254545455
O	2.615927017327272	-3.0226981935963635	1.2461951554545454
O	2.2286925473272725	-2.3597882135963633	3.7374368954545454
O	1.4738396873272723	-1.7156775235963635	2.8074705554545454
O	4.300986607327273	-0.1263504895963632	-0.5615189085454547
O	2.974604617327272	0.00562232540363683	-0.4911349005454547
O	1.2470784273272724	0.37069782740363677	2.1447307054545455
O	5.041481097327273	0.8473509354036368	-0.6064821675454547
O	1.0262892173272724	-0.9636335435963631	-0.8203150075454546
O	2.197532337327272	-1.0907249235963632	-0.4124209705454547
O	4.740986107327273	-1.249476103596363	-1.2590470345454547
O	4.090734747327272	-2.4059422835963633	-0.8145393205454547
O	-0.8346446746727276	2.6750070864036366	2.754734245454545
O	-1.9187464526727276	0.6459284851036368	3.6990497754545455
O	-0.6127612236727276	-1.1072064635963632	2.8045250354545455
O	2.7365368773272722	-2.2500407535963634	-0.7824766045454548
O	2.5233442373272723	-1.6348630235963633	4.796738415454545
O	-1.7763962426727276	3.648058756403637	2.8080511654545455
O	0.1800568293272724	2.733781116403637	3.7076921354545456
O	-0.11797933567272759	3.218406106403637	1.6825165154545454
O	-3.6833340026727277	-4.187661383596363	11.153985955454546
O	-1.1089728926727276	-1.6276794135963635	10.260025755454546
O	-2.6209640226727275	0.7198660056036368	12.769897855454545
O	-6.143218752672727	0.04973188840363685	11.495798155454546
O	-5.277338852672727	1.0117185874036367	7.9287195554545455
O	-3.8458334526727276	4.289994236403637	9.252878645454546
O	6.597819537327273	3.731671646403637	-10.008933584545455
O	6.866997997327273	4.853995096403637	-6.3961256945454545
O	4.154571237327273	4.570175256403637	-3.396397694545455
O	2.7873356373272724	6.211343266403637	2.7794254454545455
O	2.3980405973272725	8.231214616403637	6.005887515454545
O	1.4784577273272723	11.864788096403636	5.625354415454545
O	-2.9483098426727277	8.879983576403637	4.797264075454545
O	-2.7374352626727276	11.512595896403637	2.0231720854545454
O	-7.691921182672727	9.716117096403636	1.8400058854545454
O	-5.329250242672727	8.767583926403637	-0.9560761405454548
O	-10.207721552672728	8.249400576403637	-2.708211184545455
O	-7.148267382672727	7.061521786403637	-4.632098674545454
O	-4.859784192672727	4.0904057164036365	-3.777275634545455
O	-7.2014780326727275	1.3256081074036368	-2.510469134545455
O	-7.019652142672728	-2.4454523235963634	-1.9290743645454547
O	-7.4360769226727275	-3.6826019335963633	1.6698320954545454
O	-8.777312272672727	-7.313864603596364	6.758835365454545
O	-6.418206562672728	-10.097511103596364	7.634166005454546
O	-4.099105712672728	-11.088053603596364	4.808151595454546
O	-0.9934310846727277	-11.497220103596364	6.960417845454545
O	1.5749425573272724	-9.046131683596364	5.935384455454545
O	0.6296796123272723	-9.061542873596364	2.2009250954545454
O	3.3691238573272724	-11.149110703596364	0.45412234245454525
O	1.3540911673272724	-11.319523903596364	-2.7860169145454545
O	-2.2263656326727275	-10.784001903596364	-1.5424475845454546
O	-4.3116484726727276	-7.6172403735963625	-1.1724080545454547
O	-3.326713992672728	-5.262188593596363	-3.9748830645454545
O	-1.5617455626727277	-2.0559297135963632	-4.705905604545455
O	2.0986877673272724	-2.1166158235963635	-4.261054614545455
O	4.907152367327273	-0.17589538059636323	-5.952598024545455
O	8.679578437327272	0.0706359304036368	-6.200610964545454
O	11.081194047327273	1.2647237954036368	-8.814176124545455
O	11.978563847327273	0.8414286500036368	-0.9412132845454546
O	9.136105507327272	3.374112096403637	-0.9814430755454546
O	10.599932947327272	3.5078408764036366	4.0988084054545455
O	6.836089797327273	3.842916896403637	4.238066705454545
O	6.709891677327273	7.586191096403637	4.825766745454545
O	7.599894977327272	6.952296066403637	8.458415655454546
O	5.163982637327273	12.618295996403637	0.9865594354545453
O	5.641621167327273	10.144909146403636	-1.8191516145454547
O	3.7082017473272724	9.289777766403637	-4.917163644545455
O	-1.2107769286727277	-15.193847503596364	-1.8926298645454547
O	7.905953447327273	-4.755070263596363	-6.233498294545455
O	5.009084117327273	-4.583415283596363	-8.497345444545454
O	1.5058780473272724	-5.541192053596363	-7.463096514545454
O	-1.7232928826727276	-4.765163373596363	-9.334322514545455
O	-5.154738472672727	-6.012405053596363	-8.317650534545455
O	-7.3085368026727275	-3.4127878835963634	-10.071368044545455
O	-7.401439352672727	0.16126314140363684	-8.768221204545455
