75

O	3.5096109164	5.127842369037736	0.38598410879245293
O	2.7721703964	4.3369317790377355	1.3085169187924532
O	3.7787602263999993	4.295367429037736	-0.734880391117547
O	2.8157276963999998	6.277689799037736	-0.12551821120754691
O	-4.6061773836	-0.8091463109622641	-2.594468081207547
O	-4.001026133600001	0.3460705860377359	-3.106289631207547
O	1.1366800863999995	1.171036364037736	-0.16505931020754694
O	-4.4384440836	-0.9976520609622641	-1.248996142207547
O	-3.1017345136000007	1.103236583037736	-2.3635664712075473
O	0.42020681639999924	0.2908403610377359	0.579586838792453
O	-0.7455340266000007	2.224873199037736	-0.981665230207547
O	0.5984834563999992	2.295560219037736	-0.786289477707547
O	-2.691154213600001	-1.100685900962264	0.2951507287924531
O	-0.9169134566000007	0.345166515037736	0.34378070879245315
O	-3.3156556336000005	-0.44844399096226417	-0.6936349246075469
O	-2.6674844236000004	0.6996477790377359	-1.141360817207547
O	-1.5296872646000006	1.201801605037736	-0.5299882572075469
O	1.5844741663999995	3.979565119037736	0.5144639287924531
O	0.9824504763999993	5.000211399037736	0.16285789979245302
O	1.6031212963999992	3.332155949037736	-0.772249230307547
O	-1.5880268346000006	-0.6813142309622642	0.832206598792453
O	-3.3216920336000006	-1.9652766109622641	0.9362821387924531
O	3.467432176399999	12.381394359037737	-2.796330031207547
O	3.4001373864	13.625282959037737	0.761239078792453
O	7.1540021764	14.229620459037736	0.924348688792453
O	7.8473478364	10.826947759037736	-0.628840910207547
O	5.5194901764	9.245430579037736	1.9084139687924528
O	7.6515689363999995	10.786798979037735	4.606279658792452
O	9.707640636399999	5.929805619037736	3.000520048792453
O	-4.2421765036000005	-7.552200410962264	4.292000898792454
O	-1.3130586508000006	-5.156158360962264	4.472695908792453
O	1.5328785563999994	0.2791021870377359	7.543689278792453
O	2.6543742364	2.637899819037736	10.320288888792453
O	9.220260336399999	-4.998992870962264	7.660954138792453
O	7.833155196399999	-6.115943550962264	2.486132118792453
O	9.776220036399998	-4.102706880962264	-0.10361777320754695
O	9.293025236399998	-2.3448609409622643	-3.436624091207547
O	10.1510529364	1.355633567037736	-3.671581321207547
O	6.3047093964	7.076105169037736	-9.070342241207548
O	3.503954266399999	9.523307849037735	-8.243562801207547
O	1.2593958463999992	7.951529489037736	-5.5974742112075475
O	1.4999172963999994	4.3974016990377365	-6.847195811207547
O	-1.6501574446000007	3.7784294790377357	-8.960112591207547
O	-0.21237349360000057	0.6029797180377359	-10.479350611207547
O	3.538685386399999	1.2212903170377358	-10.242872911207547
O	6.070610106399999	0.3495611460377359	-7.541988911207547
O	5.0846794664	-3.043508990962264	-6.143633021207547
O	3.5870939763999994	-4.592632820962264	-3.040218101207547
O	-0.05359044360000076	-3.7039994209622638	-2.406086701207547
O	-2.7455310336000007	-5.645711420962264	-0.615448891207547
O	-6.484373643600001	-5.600674330962264	0.16688457379245303
O	-9.145633723600001	-8.151125740962264	0.875460288792453
O	-11.062526403600002	-5.797585400962264	3.166667798792453
O	-9.3897326236	-4.686113170962264	6.414990798792452
O	-8.793694073600001	-0.47474229096226406	3.023340418792453
O	-5.6176721136	-1.5881641709622643	4.832702508792453
O	-6.381027173600001	-0.14596140096226407	8.231135388792453
O	-6.1815378536	3.325353409037736	6.674413838792454
O	-2.3536660346000007	2.921841599037736	6.213848058792452
O	-1.8276573516000005	2.238859449037736	9.989539588792452
O	-2.160050288600001	5.961559619037736	10.600136588792452
O	-2.0126980546000004	-0.12120272996226411	15.109351388792453
O	-0.3684015536000007	-3.1208890409622643	13.478008688792453
O	-1.5854892196000008	-4.944958390962264	10.399324688792452
O	-0.3012064836000006	-7.897342220962264	8.434619018792453
O	-4.539383633600001	3.771188709037736	-12.327829811207547
O	-0.21393914360000066	-9.789753940962264	-10.642458611207548
O	-13.8791439636	1.907576059037736	-3.573002651207547
O	-12.046255963600002	-1.3217508109622642	-2.735836301207547
O	-10.002590303600002	-3.9549922309622643	-4.518530861207546
O	-6.2340082136	-3.9521639209622643	-4.393018791207547
O	-3.781775423600001	-6.629069440962264	-5.457638911207546
O	-0.26833825360000074	-5.770339300962264	-6.629185781207546
O	2.707660046399999	-8.058738640962265	-7.004038721207547
O	6.082397416399999	-7.062617150962264	-8.480164941207548
