87

O	-2.1646938037118644	-5.736232804230509	-1.4085840939661016
O	-2.1372379037118643	-4.406878944230509	-1.2933197349661016
O	-0.9678973345118645	-3.719542014230509	-1.6268527079661017
O	0.01577389928813555	-4.256575674230509	-2.5541538349661015
O	-0.1926243607118645	-5.557811824230509	-2.9003855649661014
O	-1.2409755587118645	-6.275736604230509	-2.3181969149661015
O	-3.2593755937118645	-3.7722813242305087	-0.5351933079661015
O	-1.1336060517118645	-2.3730973342305086	-1.4929427549661016
O	-0.8607856938118645	-1.4843785842305086	-2.4898134449661016
O	0.17244238628813557	-1.9471663042305087	-3.2097176049661016
O	0.6700519062881355	-3.2512128242305094	-3.147159114966102
O	1.3387612262881352	-3.6319611942305094	-4.173444124966101
O	-1.7501316537118645	-0.3206470542305089	-2.6030927549661014
O	-2.7491086637118647	0.10374392276949118	-1.6455280039661015
O	-3.0026392237118644	1.0247569197694912	-0.5645553269661016
O	-2.7829602737118644	2.3599992957694913	-0.30124331596610154
O	-3.2495716137118644	2.9857823557694916	-1.5794336399661015
O	-1.9458324437118644	2.465696125769491	-2.2514282449661014
O	-0.9590893017118645	2.9141399957694913	-1.5150481949661017
O	-1.5395555957118645	4.184223595769491	-0.8039354376661015
O	-2.3348455437118645	3.4677830057694914	0.33759642503389853
O	-0.4245908127118645	2.1409124957694914	-0.33771775896610157
O	0.0166833502881355	0.8242664190694912	-0.26110337296610153
O	1.2524837762881353	0.9243879535694912	-0.9052240786661016
O	2.2041525962881354	1.641933607769491	-0.2632086579661016
O	1.6153924262881354	2.601783865769491	0.5320447650338984
O	0.2133165362881354	2.758025235769491	0.6893411150338984
O	3.3908554262881356	1.0019100037694912	-0.18199123796610162
O	-9.998597743711864	7.863401955769491	-2.0800473549661014
O	-7.071044083711865	6.532518155769491	-4.075191774966102
O	-6.166305703711864	10.130996325769491	-4.863351984966101
O	-6.452587453711865	11.18912030576949	-1.2036865919661015
O	-4.042283913711865	8.551754765769491	-0.013446276966101567
O	-1.4953487947118647	9.80647077576949	-2.6631131049661017
O	-1.3802921827118646	12.446676705769491	1.8352759350338985
O	1.9582350962881354	10.82693826576949	1.0117406750338984
O	6.477492206288136	-10.68408149423051	-0.05424848896610157
O	6.054244256288135	-7.9114659642305085	-2.5904510249661015
O	4.673676666288135	-4.365235704230509	-2.0058433649661014
O	3.3274499562881354	1.7440350117694912	-4.9026061949661015
O	3.687785026288135	5.004376145769491	-6.749240114966102
O	7.150926096288136	6.565076055769491	-6.6147723149661015
O	5.561307556288136	9.626415735769491	-4.980125404966102
O	4.576717606288136	7.583702285769491	-1.9075387149661016
O	8.253781396288137	6.551473615769491	-1.1100858149661015
O	6.3044326062881355	8.622770765769491	3.3647617150338984
O	6.767220776288135	4.861860275769491	3.2829259750338986
O	10.513301956288137	4.847080355769491	4.176449185033898
O	9.985801656288137	7.690657535769491	6.600094195033899
O	6.783510886288135	6.425645075769491	8.284693515033899
O	6.7143944862881355	2.7682009657694913	7.285199135033899
O	3.807528856288135	0.8272449993694913	5.857077265033898
O	0.4868686862881354	2.187505655769491	7.093620085033899
O	-3.1608260137118647	1.1624808957694912	7.627187875033899
O	-5.813435893711865	3.568928065769491	6.315237355033898
O	-14.064404743711863	4.836748735769492	3.3713002850338984
O	-13.645907143711863	1.068177454769491	3.2682915650338984
O	-14.720630243711863	0.5842958137694911	-0.3539182959661016
O	-11.769578543711864	-0.7223883042305088	-2.3447196449661014
O	-10.311208623711863	-2.8762990642305084	0.4301105750338985
O	-11.364202443711864	-6.465214854230509	-0.3220893799661016
O	-10.353065823711864	-7.65428432423051	3.1548443950338982
O	-10.572499183711864	-4.452389454230509	5.199932155033898
O	-7.985228113711865	-1.8034732042305086	6.061672445033898
O	-4.641347943711865	-3.539632824230509	6.448372565033899
O	-1.3682825957118645	-4.088271094230509	4.672510635033898
O	-1.2883955267118645	-5.876348794230509	1.4991626550338983
O	1.2898534562881352	-8.08265909423051	-0.07776954596610153
O	1.6410852662881354	-10.38479169423051	-3.0654935849661014
O	3.8936220762881355	-13.367290894230509	-3.7781434249661014
O	3.9610832262881353	-12.646757094230509	-7.500032684966102
O	0.22708308628813556	-8.356034044230508	-8.712662484966103
O	2.388679576288135	-5.802085704230509	-6.9488830349661015
O	3.9041519762881354	-4.166697444230509	-9.942679074966101
O	0.4429439862881356	-3.0199987642305084	-10.976397114966101
O	0.5638284362881355	-0.6043306342305088	-8.0482950149661
O	3.706988796288136	1.2302051607694913	-9.293681534966101
O	1.6363285462881354	3.060287345769491	-11.870564914966101
O	9.906330956288135	1.2526045037694913	-7.098918034966101
O	8.888014876288135	-1.9713666042305087	-5.377424844966102
O	9.358875556288137	-3.3311421042305094	-1.8798176649661016
O	10.179425856288136	-6.767172304230509	-0.5602378719661016
O	-3.1606757337118645	-9.03933475423051	4.594588855033899
O	-1.8788753367118645	-8.139868744230508	8.063589185033898
O	-3.6768378437118647	-5.843407824230509	10.519196385033899
O	-0.6977665767118645	-4.879503994230509	12.6835040850339
O	2.0066567562881352	-2.5761229342305088	11.264137985033898
