24

O	23.820894172071814	8.58218414766836	28.142034419201885
O	25.982664902899227	11.68814714451243	24.910527594243877
O	24.615238042692745	11.950309729993577	26.296996929171126
O	22.88247675827259	9.159048050782786	27.342998438075227
O	26.053601964683278	8.443839672286588	28.399749881648432
O	23.246355551884836	9.246849419947575	25.938160349770726
O	29.262183842743408	14.368559575841168	28.321386713259045
O	24.528929611373812	9.764179797581095	25.709349740354863
O	25.431645947200725	9.340324837350797	26.623373059350335
O	25.0709211043423	9.141577698255821	28.002954720591788
O	24.60533539777552	11.092224854958985	25.142229562526953
O	27.108405956796982	12.095089421710611	25.748122682071827
O	27.582977061617523	11.023746718554024	26.612606416651182
O	26.67287631105664	9.808861094848336	26.78501542594237
O	26.95633512873958	9.464559143133027	28.202268852120643
O	26.509384853044864	10.612037346567996	29.10911971583293
O	25.547603266956248	11.509936673634462	28.81555285954829
O	27.675436757441954	11.144506780841551	28.72670594825273
O	27.962682084386685	12.395393364516472	29.126784583062772
O	27.081759398369215	13.339416293337777	28.701486906009436
O	25.829331375156617	12.896680211144865	28.75519657160667
O	27.888574708801276	14.352959469434047	28.04308028466278
O	29.811439876318808	13.099559876961894	27.840371631865032
O	22.087448250405853	9.737841236490173	28.329366650165152
