89

O	1.5946071123454537	-0.3065428750000002	-0.38322647056363657
O	-1.6916612276545462	-4.613949247	-5.292048544563637
O	-2.038469927654546	-5.318801097	-4.145932084563636
O	1.3626422623454537	-4.446327216999999	-1.6921611995636365
O	1.9703764923454536	-5.564947227	-0.9339600965636365
O	-0.6317668876545461	-3.7115499670000003	-5.314556644563637
O	-1.225285367654546	-5.104996087	-3.0369486845636366
O	0.8945838423454537	-3.314613827	-0.13451029256363656
O	2.025635382345454	-1.7861089170000002	3.4552715454363634
O	1.6127331723454539	-0.3293406200000003	3.2407658154363634
O	-1.153113607654546	-3.8093908670000003	-0.7488735885636366
O	0.3944538003454538	-1.825176297	1.4708774054363636
O	2.201098082345454	1.0630882779999997	1.4979016954363635
O	2.615717252345454	-2.7182283170000003	1.3432520554363634
O	0.2502113053454538	-4.323358757	-0.8513684405636366
O	2.442495392345454	-5.016575967	0.2943979354363635
O	2.0249709523454538	-3.7728095670000004	0.5400605954363635
O	0.5266036233454539	-2.1046983970000004	-3.833858434563637
O	0.10783649434545384	-1.2809448970000004	-2.8736082045636366
O	3.240255212345454	-2.0545422770000004	0.5037676454363635
O	1.3307872823454538	-1.8242423070000005	-4.706460074563637
O	-1.2680405276545461	-1.0148732270000003	-1.1916462095636366
O	-0.47473265265454617	-1.8254154170000003	-1.7978409225636365
O	-0.41807407565454613	-3.083601987	-4.128637334563637
O	-0.8780660156545461	-3.7486998170000003	-2.995127824563636
O	1.0988228523454537	-0.7092111540000002	0.8733314654363635
O	3.392859752345454	1.5863111429999996	0.8847397554363634
O	1.5207083323454538	-2.4172708370000002	2.2124385554363633
O	1.9525890023454537	-0.23966528100000026	1.8499022354363632
O	-1.044119084654546	-2.9931434770000003	-1.9063525455636365
O	3.7407802723454537	-5.213285927	0.4693264254363634
O	4.368316252345454	0.7165405699999997	0.4695271254363633
O	3.8376406423454537	2.630108203	1.6457251954363634
O	3.218247162345454	2.349521093	-0.3043712455636366
O	5.995227602345453	-5.005733047	9.730484785436364
O	7.302618552345454	-4.041775807	6.382491565436363
O	10.091813562345454	-2.1546772470000004	7.975760945436363
O	7.743597962345453	-0.47015916800000024	10.439376785436362
O	5.540242752345454	0.9404803519999997	7.672159615436364
O	8.636236312345455	2.3755462229999997	6.038426485436363
O	-4.510071317654546	2.733576253	-11.354213314563637
O	-0.9075999526545462	2.3843949529999997	-10.288653684563636
O	0.6731475843454537	2.6035723029999995	-6.589652814563637
O	6.192262182345454	2.640189053	-3.030615124563637
O	9.729493862345453	3.4025299629999997	-1.8255232095636367
O	11.006866762345453	6.909948713	-2.4801809945636366
O	7.586784742345454	7.066430833	1.7079249254363635
O	6.720919792345454	9.959596683000001	-0.6659606795636366
O	4.301331282345454	11.104425133	3.876330705436363
O	2.1670505123454538	10.090227513	0.9135133054363633
O	-0.8508482626545462	12.667609633	4.260771455436363
O	-2.2171522176545464	10.843331633	1.2208351154363635
O	-2.4582652976545463	7.063900243	0.7222868054363634
O	-3.351107087654546	5.561432843	4.186199335436363
O	-4.658086147654546	2.2517983129999997	5.5571001454363635
O	-2.4878625676545463	0.3595820649999998	8.038216795436362
O	-0.5807705986545462	-3.450958517	12.829112585436363
O	-0.6332375016545462	-7.165378477	12.265132385436363
O	-2.826789877654546	-8.252701116999999	9.368774085436364
O	-0.4371697696545461	-10.885024167	8.032183975436363
O	0.6625793383454539	-9.984631367	4.636934115436363
O	-2.601151507654546	-8.248018927	3.5622717154363635
O	-4.357556617654546	-10.780187267	1.2331188654363634
O	-7.623077707654546	-8.821143296999999	1.3566016454363636
O	-7.304324247654546	-6.953664547	4.667499685436363
O	-6.033771157654546	-3.4840102170000002	5.4935756954363635
O	-6.841962727654546	-1.2226774770000002	2.5720175054363636
O	-5.314438427654546	0.6549044599999998	-0.2717088585636366
O	-4.018797887654546	-1.4156963970000003	-3.0231611945636363
O	-3.559615407654546	-0.7854107380000003	-6.720598884563636
O	-2.636524267654546	-2.4376417170000004	-9.993507034563637
O	-3.5238969776545463	-1.922643797	-13.581899714563637
O	2.970349432345454	-5.156173967	-10.510503664563636
O	3.4304285823454537	-1.6682576270000002	-9.035093814563636
O	8.069761702345454	-3.9203372270000005	-7.872858774563637
O	7.304424862345454	-1.7954069170000002	-4.824269394563636
O	9.630086432345454	1.0598815099999999	-5.681570054563637
O	12.544057362345454	-1.0445744670000003	-4.463859864563637
O	8.596097632345455	7.090671983	-7.939448224563637
O	5.1853955623454535	5.778219163	-8.875393634563636
O	1.6798870223454538	7.079694513	-8.496338284563636
O	-9.577207047654547	-10.861550567	5.159136425436364
O	-5.253773727654546	-5.869291797	-7.726880134563637
O	-7.850031947654546	-3.5423788870000004	-6.559308514563637
O	-8.470663127654547	-2.8118286470000005	-2.9125464145636366
O	-10.493987337654547	0.06490779099999976	-1.4579267295636367
O	-11.257668737654546	0.5067756369999997	2.225584995436363
O	-11.977118637654547	4.237932343	2.2790145754363635
O	-9.146133297654547	6.720373293	1.7788359854363633
