20

O	26.046911307120844	12.798231702220129	30.987686846649485
O	23.488827975749096	6.65927703002277	26.051828834134508
O	23.98282024355176	7.132167817607698	24.802937401912295
O	24.347302914472607	8.47889004381559	24.781124821597864
O	24.40357638159115	9.03399543544645	26.01772833882287
O	23.263169542505747	8.77407666050143	26.722637131894423
O	23.46301880854724	7.532180739003058	27.211054975504858
O	24.738584057002804	9.351255479572291	23.839920250869426
O	25.33620159303155	10.496110405244934	24.28492256054365
O	25.765427044049623	10.774147358761507	25.524189896166245
O	25.380188259564132	9.798589028953362	26.346686273403858
O	22.707700292702437	10.092129742510565	26.821936752621856
O	23.116500836510344	10.591838635313854	28.077698763329547
O	22.860010920995535	11.151486386635188	26.100876682267227
O	26.33308201565383	11.781258422165948	26.49355727903868
O	25.462149506374224	12.653570607237958	27.123400573945183
O	25.607620755404646	13.223884391271287	28.38909972523269
O	26.051009958783904	12.297566070900066	29.326337801809427
O	27.244424263601683	11.78926288348855	28.819099444807456
O	27.06490450488978	11.231969146297658	27.559663117469423
