28

O	22.08094816268704	8.960573101905371	22.976419480489334
O	23.531391968588604	8.38565216379241	24.516379594026272
O	24.57093318486758	10.761212683336103	24.28605525215486
O	24.373910528805197	8.881980324859718	25.440397009151063
O	23.581772470362587	10.439393710699626	23.525660763168215
O	25.065727537465825	9.991094989227735	25.2249604108023
O	24.897794218241156	9.282615661763938	27.588875830759637
O	23.273231648306172	9.140596679424327	23.413509107778694
O	27.703020790160323	11.530779643149124	25.698822228164836
O	25.408435307428352	10.834996143057431	26.435267982709703
O	28.026717589510618	12.779598372323264	25.489902714487883
O	26.194464560883503	9.807969741693082	27.25744649133818
O	26.08633545334346	12.430474258957686	24.744880381631
O	24.427697927598192	8.344571395284563	26.66592253085353
O	23.64585660404806	7.195465418016307	26.7467034424261
O	23.278923196054123	6.400759553722141	25.694951534064582
O	22.835127386218147	7.174181335982132	24.616280147359486
O	26.755964585365003	10.714112345635375	28.260568504940277
O	25.813405881823105	11.338568073429794	29.02291152823655
O	26.11560707932777	12.417813283944408	29.80767237784093
O	27.15904111337733	13.17943041667303	29.356666635451006
O	28.18632920583289	12.503558660956314	28.774063290247952
O	27.99855260457427	11.210771149952848	28.44842432476387
O	26.386737183872192	11.67864695040092	25.834046498427444
O	27.109152282658023	13.283933994474047	24.625717823471998
O	28.116988332657378	10.164432190286833	25.75115992370599
O	23.379031121644335	5.063611819473032	25.65412716903097
O	27.22327331112154	14.508715637201785	29.26908182598771
