32

O	29.144581545256194	17.215448749589743	23.956142238563572
O	27.79658717456359	13.866840383002643	23.991514616597822
O	24.358279827381917	6.632051918736029	26.412436477666862
O	25.375749568448423	7.088834557068303	27.243686511294833
O	25.660626133114363	10.88443984517336	27.09500840241393
O	25.835370822727832	11.106245972917701	28.539137051359482
O	23.735936535603372	7.406308323108091	25.439420622969603
O	26.124949164355815	8.104864358004583	26.77592431697097
O	27.22451014803176	11.922500364224973	26.43768306869952
O	30.472580331955328	17.150955045888047	24.722414035343075
O	29.06452046847556	15.428071418900783	27.24013273841004
O	30.671993769104507	15.747533067189556	25.331946564842376
O	28.542325586683646	16.002116520402435	25.91719057806021
O	27.650047863923298	9.858002137686718	25.65513907524653
O	29.1231822149086	13.10136446099909	26.140475253675206
O	27.13532924005918	14.186017765378182	27.082896202429577
O	27.0268689860472	10.593079135590024	26.808693903281913
O	26.607188746522258	12.298284471756201	28.68824124035193
O	26.884216557339236	12.820808934168374	27.477033899242148
O	23.752939698009005	9.722364138409196	24.63993159036832
O	25.86311752441644	10.866937081629088	24.599070198626336
O	24.51226200987879	10.840847778548877	24.469375385534164
O	26.456659566198518	14.498582891687025	26.090027806839892
O	22.51128578157192	9.735483077085505	24.536202059004523
O	26.493410349699246	11.26934281851753	23.568867215866597
O	24.394510880868104	8.551729181076055	25.053483296959847
O	25.62533792459489	8.767282410482	25.654845686473664
O	28.80869086998005	13.961154299554265	24.996244216911656
O	28.57167882462921	14.03676324082139	27.117994523957506
O	29.432781638108334	15.105189999111168	25.151858260319084
O	26.386952306707556	9.64201315219466	24.95161025472654
O	26.02824765967431	13.133435279436474	29.544956660751325
