88

O	-0.016683364674999826	-2.2311324927803566	0.014468208303571761
O	0.32855912762500017	-0.9700155427803565	-0.5840883806964283
O	-0.38469952137499985	-2.1430890027803566	-3.207254644696428
O	1.7174630276250002	0.7944812792196434	7.093581445303571
O	2.096958037625	-0.4250370497803565	6.519942735303571
O	4.257799907625	-1.3904964327803566	0.8417239653035717
O	4.085488927625	-2.7312867127803564	1.4477133253035719
O	1.8776697876250001	1.9983371572196436	6.4034695453035715
O	2.428651147625	-0.5201917527803566	5.167022205303572
O	2.225221727625	-0.8489657527803565	0.8399439853035717
O	-0.010661809274999823	-3.5912387627803564	-3.3173841246964284
O	1.3794652876250002	-3.6852536827803566	-2.805040454696428
O	1.3981700476250003	-3.9551680327803562	-0.5205621296964282
O	-0.08716814387499983	-3.569312992780356	-0.5748207896964282
O	3.372869497625	0.46815592211964346	2.5054181253035717
O	0.5242257746250002	-2.3870783427803564	1.2864509953035719
O	3.399580067625	-0.40134716578035656	1.3581056253035717
O	2.777666327625	-3.0652302727803566	1.7891297953035719
O	1.971053357625	-2.2609256127803565	1.0286472653035719
O	1.6866933376250002	2.9176068372196435	4.181836705303572
O	1.2299392576250001	-1.6401846427803566	-1.5951287746964282
O	1.834884707625	-0.9096036327803565	-2.303704034696428
O	1.0977002576250001	2.5294511372196435	3.0030713653035717
O	0.2694109456250001	-1.7978633227803567	2.338373975303572
O	2.485052917625	3.8588688272196436	4.359009385303572
O	0.5081525476250002	1.0217758992196435	1.5586145753035718
O	1.2190848276250001	1.2930251182196435	2.494440775303572
O	1.7411126176250002	1.8099515072196435	5.026608315303571
O	1.8822292976250001	0.5238043968196435	4.474484615303571
O	1.6992655076250003	-2.9548333127803565	-1.567582234696428
O	2.092076647625	0.5292916076196434	3.150151665303572
O	2.569288917625	-3.1040514227803566	3.1647700653035717
O	4.770102497625	-12.096197892780356	-0.8717606026964282
O	6.406360627625	-8.702219242780355	-1.1397697436964283
O	8.040597987625	-9.780424092780356	-4.327907644696428
O	4.772527147625	-11.198523492780357	-5.715929284696428
O	2.936813017625	-7.899502392780356	-5.248642884696428
O	5.747507167625	-6.146683452780357	-7.182060904696429
O	-2.312958182375	11.408351107219644	3.3489920853035717
O	0.8884693486250002	9.993725117219643	1.9268968553035717
O	1.3377395476250002	6.7867854572196435	-0.07584852769642825
O	5.587903857625	2.7132019072196436	-3.487532634696428
O	8.252697977625001	1.4201566372196435	-5.851155894696428
O	8.488211887625	3.2681539672196434	-9.148542584696427
O	4.304541647625	-0.21421178378035655	-9.334596274696429
O	3.163041627625	3.1798449272196434	-10.681954674696428
O	-0.4900990853749998	-0.28810362578035653	-12.254818874696427
O	-1.409225992375	2.2491862072196436	-9.583867664696427
O	-2.320467632375	5.104962457219644	-11.928155274696428
O	-5.802312672375	0.5371870396196434	-11.786081374696428
O	-5.738451582375	2.7353829072196434	-8.673381364696429
O	-4.616491442375	1.6966767172196435	-5.191019004696429
O	-5.842547682375	-1.8829936027803567	-4.6081518746964285
O	-6.499012312375	-4.325723932780356	-1.7471337946964283
O	-4.641583932375	-7.695402022780357	-1.7492748546964283
O	-1.2894562623749999	-14.569608292780357	2.720674335303572
O	-2.242183552375	-12.104294192780356	5.460368015303572
O	1.1432131276250002	-12.104076492780356	7.220879405303571
O	2.709798007625	-8.670729762780356	7.016128795303572
O	-0.6173180783749997	-6.777905402780357	7.216493885303572
O	-0.7095191553749998	-5.357696712780356	10.746756125303571
O	-4.367483232375	-4.391554042780356	10.327028025303573
O	-5.594049522375	-6.764049822780356	7.600162305303571
O	-5.918786882375	-6.402346992780357	3.8289017353035715
O	-6.593092552375	-2.7005362727803566	3.074385425303572
O	-5.024599472375	0.5547306695196434	1.8009498953035719
O	-2.271178342375	1.8580575872196434	3.8726241153035716
O	-1.411981842375	5.665329127219643	4.375057265303571
O	0.7318920536250002	7.957091647219643	6.604347505303571
O	0.6334642816250002	11.506272707219644	7.717896945303571
O	6.889763867625	6.654480767219644	6.985994555303571
O	5.815106637625	6.635138597219644	3.3336337153035718
O	10.581519327625001	4.284339407219644	3.0951283653035717
O	8.465889297625	2.4626782972196435	0.5498063873035717
O	9.873023177625	4.100025727219643	-2.554625244696428
O	12.909888827625	1.8245113672196436	-2.2451793846964283
O	7.511188757625	8.596167417219643	-6.610721404696428
O	5.049450567625	9.292361437219643	-3.8313691146964284
O	1.3305195476250002	9.890034157219644	-3.7806914146964283
O	-0.8845841873749998	12.259280207219645	-1.848080734696428
O	-6.438891812375	-8.424711012780357	11.741115525303572
O	-0.8028671833749998	4.547339987219644	9.673339215303573
O	-4.329790892375	4.823935417219644	8.396708645303573
O	-6.060712572375	1.8965226472196435	6.810349315303571
O	-9.233046942375	1.9367865472196435	4.715389005303571
O	-11.051127372375	-1.1545899727803566	3.444204705303572
O	-12.879505372374998	0.3592462742196435	0.4745457763035718
O	-10.947906072375	1.4541400652196435	-2.620504894696428
