33

O	24.288093249095148	7.053113996930782	24.361020469658108
O	25.37763969229895	6.857745114284411	25.16361257845185
O	25.7968792029408	10.976188219897406	27.12031930368267
O	26.160890172689818	11.443824671980675	28.45961641205522
O	23.76728948778384	8.293041443929312	24.05564701094239
O	25.836258465717698	7.972489436153833	25.862055993043885
O	27.639185849264393	11.857618600601496	26.280541437369266
O	28.33498316053618	16.365322496200598	26.974784202785706
O	30.12190515041921	15.987564085592862	25.531494851543492
O	29.031978036184576	15.088317199944884	27.441236539961537
O	29.638373734193333	14.55531139200776	25.17771519092284
O	27.77410763504674	9.734211352957965	25.759471491713477
O	28.160734789745366	16.276195602185865	24.50624233383151
O	27.268061116592726	14.171675759967211	26.21941928475763
O	27.103375223022113	10.614984577987192	26.744028065400116
O	26.853100018402298	12.682848032268286	28.31150649901864
O	27.246413575971754	12.92721344886988	27.032792768992785
O	24.336609792322914	10.696906730203406	24.12976262479073
O	25.387384805763343	11.450518050602604	23.79870105231066
O	26.41623170568945	14.036016172203082	25.322540896881943
O	23.20582846256301	10.968834348111766	23.74787624861007
O	27.576411968273913	11.533768900769736	23.58661909162093
O	26.609826386351155	11.133910438049636	24.26497425895435
O	24.61274636194898	9.338712343925028	24.27333419363795
O	25.724389967193403	9.134545598584545	25.09819321158429
O	26.927788735030784	16.90201118959756	24.08161442068455
O	28.814545830125805	16.61237520390363	25.675486158126184
O	28.701667339010154	14.313185869218286	26.204864025725715
O	26.789938759131633	9.89493984289458	24.716628615289874
O	26.126347031784523	13.640050625122468	28.850068614717543
O	27.216238193308207	18.02331900027049	23.377317632375906
O	25.94618289730728	17.015558428678517	25.063836021332683
O	26.137615593391747	16.30345497100247	23.09373820222358
