16

O	1.854684535181998	64.72390969424201	85.38658158264907
O	1.5196861860326978	64.6999253355943	84.10043035581195
O	1.9734298511110784	65.56770311869222	83.28025638106611
O	0.2809624580382116	64.37465103155601	83.62571661871668
O	-0.43687464507607987	63.5705198185703	84.39992299455105
O	-0.08705786115270298	63.585198270942875	85.75447216179714
O	0.7972728840580717	64.52135871408547	86.23446851917687
O	0.8095660826506358	64.74245424085821	87.44680186214654
O	-0.3384606822237325	62.36689353317175	86.18662695462231
O	-0.7865803559088036	61.630787415754355	85.1302780998397
O	-1.1306081594947615	62.45122646042372	84.10245544659219
O	2.710615590893803	65.7147384809217	85.9432072249434
O	-0.2207385370337418	64.61010669211821	82.30369612616578
O	0.5933150902036332	63.68707879283377	81.39712456941788
O	1.082464672629044	64.62935900738977	80.3320250276223
O	-0.4403838517505555	62.79778878667691	80.7642880722788
