81

O	3.124077027680851	-1.3491276876595748	2.1415844362340426
O	2.4944455776808505	-1.5039902976595751	0.7885727852340426
O	1.101618197680851	-1.6500110176595748	0.8095105912340426
O	0.2611787176808509	-0.9793276076595748	1.7092602762340428
O	-0.5084436123191491	-1.6089330576595748	2.6859171062340423
O	-1.5021086363191491	-0.9388048376595749	3.3901847762340425
O	-2.3070242473191493	-0.11636692665957482	2.6640348562340423
O	-1.771990475319149	0.32615532034042516	1.5035082162340427
O	-0.3698342423191492	0.24816984734042513	1.4618207662340428
O	-3.483754652319149	0.5465220523404252	3.7234852662340425
O	-2.9039117123191494	1.5786212913404252	4.598320106234043
O	-4.668705412319149	1.1490731383404251	3.1467502562340424
O	-7.139265622319149	-1.059997417659575	8.155139146234042
O	-4.07452808231915	-0.6439502376595748	4.752496006234043
O	-3.982812332319149	-0.5459343376595748	6.1268722562340425
O	-5.319660412319149	-0.34734793765957483	6.698195016234043
O	-6.148107422319149	-1.2805776576595749	6.020126586234043
O	-6.3848687023191495	-0.9414328876595749	4.618972826234043
O	-5.048765112319149	-1.337726677659575	4.073333336234042
O	-7.404904492319149	-1.288383357659575	6.669686406234043
O	0.18081143768085095	0.6601490583904251	0.1514439942340426
O	1.4614356876808507	1.0093577333404251	0.1737980052340426
O	1.9354468076808509	1.298617809340425	-1.0519389937659573
O	1.346276377680851	0.6367142508404251	-2.0577928137659574
O	0.3911159476808508	-0.23361348165957485	-1.8670274737659571
O	-0.29267297231914924	-0.15035298765957483	-0.7708088037659573
O	2.9918294376808507	1.9002864123404253	-1.3209795337659573
O	1.459311377680851	0.8183753273404252	-3.4029174337659573
O	0.3094240776808508	0.40369674134042516	-3.8929481437659574
O	-0.31143101231914905	-0.3597847876595749	-2.9200966337659575
O	2.6889925576808507	1.2472451163404252	-4.0852335137659574
O	-1.6552489925191491	-0.7718798576595748	-3.3515044437659576
O	-2.1840471833191493	-1.7079920076595752	-2.2696484637659577
O	-3.231326662319149	-0.9296534076595749	-1.5293744437659573
O	-2.582281503319149	-11.851363827659576	-6.506138793765957
O	-3.8814965623191493	-8.673840237659576	-4.864001933765957
O	-6.9174084023191496	-7.665533407659575	-2.8308946237659574
O	-7.491886302319149	-5.698949997659575	0.2970139572340426
O	-10.07462112231915	-2.864617477659575	0.044441265234042626
O	-8.786663732319148	0.8915602103404252	-11.504325403765957
O	-10.566012342319148	-1.4459807976595749	-9.045446463765957
O	-10.08979740231915	0.37494719734042514	-5.7418405337659575
O	-13.348247812319148	-1.048453307659575	-4.416754403765957
O	-1.375606537319149	5.554374132340425	-7.787694823765957
O	1.1285449676808508	8.120391932340425	-9.001345523765957
O	3.989319277680851	6.335602742340425	-7.174907753765957
O	2.6097567776808512	7.578105992340425	-3.8637935437659574
O	3.2317393276808506	11.151394672340425	-5.253335443765957
O	8.552824887680853	1.494271586340425	-5.489235343765957
O	6.89788132768085	1.093543200340425	-2.0690291937659575
O	9.37874218768085	-1.6911759176595749	-1.3528400137659573
O	8.31119735768085	-3.3665819976595746	-4.583571823765957
O	4.7848524476808505	-3.235762507659575	-3.3907173337659575
O	5.689908667680851	-4.678348667659575	0.0175693562340426
O	7.580650997680851	-7.430004247659575	-1.6875863737659575
O	4.621736637680851	-8.429647227659576	-3.8345461037659576
O	2.341710827680851	-8.486957007659575	-0.8023291337659573
O	4.745857447680851	-10.469663827659575	1.3749638732340426
O	5.278455257680851	-12.827803927659575	-1.5233339337659573
O	1.525391527680851	-13.248693027659575	-1.7340396837659575
O	-2.643887592319149	-10.497630627659575	7.411821216234043
O	0.1936070876808509	-8.133814147659574	8.626956466234043
O	-0.35295311231914916	-6.410096287659575	5.2552794262340425
O	0.8659562076808509	-9.580869127659575	3.4856317362340423
O	5.182319087680851	-1.4883609676595748	9.959026536234044
O	5.248300467680851	-0.2786646226595748	6.389331976234043
O	5.761337977680851	3.394890932340425	7.310181776234043
O	2.785423077680851	3.284844252340425	9.596215066234043
O	0.908257297680851	1.806489982340425	6.828101826234043
O	0.7576248976808508	6.860774392340425	6.125824916234043
O	-2.4769091213191494	5.1074759023404255	6.580915526234043
O	-2.941472422319149	4.297680932340425	2.9276718362340426
O	-2.131356548319149	7.864094692340425	1.9941046862340426
O	-4.638145742319149	9.246246872340425	4.500761386234043
O	-7.509717842319149	6.967648252340425	3.6226863162340424
O	-7.044387272319149	6.645525232340425	-0.10407387976595733
O	-4.667595462319149	9.098608182340426	-1.7843070637659573
O	-4.778942072319149	12.584870072340426	-0.25756664776595734
O	1.7161889176808507	12.999739772340424	-1.7501608037659573
O	3.305949857680851	11.383114172340425	4.236281136234043
O	6.9058541076808515	5.366617882340425	11.769036296234043
