33

O	0.9311053502920597	64.33999720425963	81.07779804474399
O	0.16960812951213255	63.12502201535516	83.6184615788009
O	1.1485192233687682	63.37849231888443	87.32681871929138
O	1.5054471301470345	70.30704298370522	82.23683124095588
O	0.3802532399028553	65.77682589514126	81.19751900805598
O	1.3878340216250062	63.41433307071719	84.25074849652181
O	3.6608182167907293	65.26065133902759	83.84341720029083
O	-0.5911066610483873	65.48899881319102	82.2912142976211
O	1.8924987578121444	65.45487643029041	86.52255653179958
O	0.1381429808442891	70.19265266851411	81.80095250068788
O	-0.15835148549125933	64.48310858585914	83.33444114816614
O	0.6925337476210586	65.97648899997021	84.80001650667162
O	1.5069628855110409	71.27990665609347	83.2817406354905
O	1.7745276265450403	61.91556127103032	84.5645454115211
O	2.4459420149363185	70.94831714345924	81.04308133460533
O	0.6792947778715271	63.820924819520485	85.375009974602
O	2.152124794128853	72.9975225987911	79.50265986931353
O	1.323390971580419	64.26343356691741	86.49161036331205
O	1.7653791700125918	66.31519195441514	85.50502290988591
O	0.06840548943543201	64.86116712066922	84.61099519002536
O	2.384563217575816	67.16828222916962	84.54424446258365
O	1.5961816925255414	68.14003594455778	83.84319329788232
O	2.0635171881759025	68.8127072147723	82.77571808319165
O	3.4049794858927385	68.80062429634741	82.80219954226348
O	3.942090473385698	67.59721516894811	83.26085823413328
O	3.119410974821095	66.48727440756532	83.58565088660039
O	4.074568741013798	65.04655202963028	85.1399851752512
O	5.02595306807588	65.99719091554933	85.7513673902664
O	1.8079418448538516	70.77865090573636	79.82509182682591
O	1.104502272735804	72.02888769736617	79.47283037745594
O	1.7156418233240152	74.17129850339671	78.83711016428434
O	2.387329385843846	73.28040886212443	80.85950802683473
O	3.128060180778947	72.11503291746115	81.38924016139262
