29

O	-0.05822833458428489	65.15236129094136	86.73861834027424
O	0.0029471005179360077	64.89700491768002	88.08853884995519
O	0.7221249841113089	63.80391318634858	88.38623960302873
O	1.1244080247382429	63.267348058208974	87.22818679517165
O	1.511616580153745	63.84257611587678	86.01356617968307
O	0.721999883101319	64.84296637709001	85.72252087238932
O	0.9703437570521243	65.15354365033522	84.40015679275672
O	2.2674093073311345	65.09159330219781	84.215752197229
O	2.567397450692612	64.2160051598211	85.22583837585344
O	0.5323497031208686	66.13644359329822	83.35824612974757
O	1.4994687621327314	66.25585466679605	82.17253328233265
O	2.6392376067089103	66.93825756459945	82.58203817550863
O	2.9498858681022817	66.37930922483608	83.73943194795024
O	1.9082925952936356	67.82294146065784	80.10125901564543
O	3.339613190934027	67.7945905755563	80.40268317120648
O	3.1644598072149788	67.99251055729599	81.88776833123394
O	1.601115090906057	69.21176532486002	79.66164771413128
O	3.124007725373098	69.0738428751717	82.42567377400535
O	3.265895505815932	66.91497485828944	85.03606764062732
O	3.834172132626443	65.8353177577786	85.74212425266197
O	3.8417102801202265	65.51018462316942	87.15168779233387
O	2.9029882151195596	66.21059503865307	87.78852945803187
O	2.183602781175276	67.03942385559384	87.02570639479832
O	2.0210863300176847	67.18167364945948	85.64511094225432
O	3.802866866113054	64.37271972083782	88.04634771070894
O	3.8908981012796833	64.93943073607348	89.31310263615258
O	2.8288433951958702	65.77746674764197	89.11747790688528
O	1.0495980580706816	67.03159401781708	80.95848642595155
O	0.22522447531040113	67.78418463023213	81.47359002107085
