81

O	-2.9105576373725492	0.7346953703137249	4.068741910960784
O	6.892604142627452	-2.131688279686275	-4.569691509039216
O	2.8075531326274508	-1.559901119686275	0.9109767709607843
O	2.1858273826274512	-0.708791459686275	1.8171544009607843
O	1.487363022627451	-0.7467327296862751	-0.7409946580392157
O	-1.4881503283725488	0.1644966423137249	4.097790910960785
O	-2.8650800273725485	3.242643930313725	-1.3578789490392158
O	-0.8557040333725489	1.010082096313725	3.0669630709607847
O	-1.4208846303725489	2.888507580313725	-1.3604936160392156
O	-3.486435027372549	1.967920320313725	-1.1486920680392156
O	6.389897662627451	-2.556295319686275	-2.4816518790392155
O	4.779915562627451	-1.411429769686275	-3.6345682490392157
O	5.840325152627451	-2.118951739686275	-1.1932790420392156
O	4.2230260726274516	-0.703460569686275	-2.4659604790392153
O	2.3049522726274514	-1.706877489686275	-0.34013546513921566
O	-1.2808513443725489	2.0945177503137247	-0.1834189900392157
O	0.8676768226274512	-0.25650019968627513	1.6732222609607843
O	0.6171216526274512	-0.6568222396862751	0.35896885296078435
O	-0.5787697043725488	-0.02218971268627512	-0.11110792203921571
O	-2.502685907372549	1.507811282313725	-0.0951283660392157
O	-0.23214844937254886	1.3156028003137248	-0.23036729503921569
O	-1.553637045372549	-0.3744716266862751	0.7786636709607841
O	-3.612917007372549	0.021892148313724935	1.1223666309607843
O	3.876312352627451	-3.823549569686275	-0.5236939190392157
O	2.8633798726274513	-3.036982359686275	-2.4984435390392155
O	0.24519272362745115	0.6959407573137248	2.3661945209607844
O	-2.600308427372549	0.3305405473137249	0.5107881099607843
O	6.203212062627451	-1.5233991596862753	-3.4655388090392156
O	4.626715732627451	-1.503718239686275	-1.3891497850392156
O	3.3931040026274513	-2.632527749686275	-1.2223241090392156
O	-5.495752387372549	9.390563790313726	0.7415828909607842
O	1.355524862627451	13.377751880313724	-1.0356318880392157
O	4.899278382627451	12.699348780313725	-2.2135409890392155
O	5.021852352627452	9.016652470313725	-3.1394411890392155
O	7.451063302627451	6.511455530313725	-4.606397089039215
O	8.47270850262745	2.9706622503137248	-3.8097809190392153
O	8.41373827262745	0.6367722243137249	-6.832945319039215
O	-1.0076558503725488	4.458425880313725	-13.362107009039216
O	2.7580870426274515	4.5634964903137245	-12.660522809039216
O	3.3736319326274513	1.242971009313725	-10.864053509039216
O	6.849473082627451	1.121106855313725	-12.336673409039216
O	5.629268882627452	-3.8717396296862754	-13.373780309039216
O	-6.089167717372549	-0.37595077068627514	-6.888303679039216
O	-9.75031498737255	-1.1690974896862751	-6.324250089039215
O	-9.68432817737255	-0.4230113336862751	-2.5803001690392153
O	-7.592719647372548	-3.597511279686275	-2.0312799590392157
O	-10.63740882737255	-5.514191259686275	-3.3667926690392154
O	-10.63159249737255	-1.7922202196862749	2.8728980909607844
O	-10.47563513737255	2.200677060313725	6.585580220960784
O	-8.89819587737255	3.249840890313725	3.3328271009607846
O	-5.837840287372549	1.305001630313725	4.207635050960785
O	-5.2410909073725485	3.4790115403137247	7.201804890960784
O	-5.488321377372548	6.523108380313725	5.035320130960785
O	-2.717525907372549	5.203511500313725	3.0368595309607844
O	-0.5351459373725489	4.557024690313725	5.964733940960785
O	-1.167176969372549	8.014973830313725	7.165106130960784
O	0.020060753627451078	9.542955220313726	3.9139802009607845
O	3.171752872627451	7.476910800313725	3.9420441309607845
O	3.9946524626274513	8.127039200313725	7.577019480960784
O	5.751701322627452	11.670305980313724	4.109509760960784
O	12.07019930262745	3.336671440313725	5.217754910960784
O	9.770926902627451	1.1794439313137248	7.408997810960784
O	7.242598672627452	1.796456160313725	4.583981950960784
O	7.124256592627451	5.534999720313725	5.5597782209607844
O	3.7378057526274517	-3.9481952296862755	10.266031190960785
O	0.8990171126274511	-2.766237709686275	7.915895350960785
O	-0.8361563943725489	-6.163615269686275	7.885904810960785
O	2.4214252526274516	-7.906863929686276	6.982026640960784
O	3.0194571326274513	-5.429042309686275	4.287797990960785
O	-0.1786115363725489	-9.029969619686275	2.4490515409607845
O	3.1452008526274513	-8.422338939686275	0.6829971209607844
O	1.642288442627451	-5.890349559686275	-1.5921661090392158
O	-1.336496533372549	-7.954573319686276	-2.4066945790392156
O	0.8947640326274511	-10.922069319686274	-3.2554601090392157
O	3.432375962627451	-9.054664259686275	-5.346153009039216
O	1.2006831426274511	-6.499384849686275	-7.048249519039215
O	-2.540846867372549	-7.112343339686275	-6.854386039039215
O	-3.5617652073725488	-10.783576519686275	-7.016809739039216
O	-8.671350147372548	-9.273783539686274	-3.0014319690392157
O	-5.341796737372548	-11.117587719686275	2.1405717909607844
O	-0.0468972653725489	-10.168821719686274	10.879461190960784
