30

O	3.9726877319298897	64.024532754592	88.1428658774437
O	-0.41915927484217885	62.35826622921247	82.78015531140437
O	2.5728577048196115	72.76678062917387	77.82603517421008
O	3.1929401823885692	68.98051553829085	84.00810783051575
O	3.9118307933681633	68.0371203399884	84.73287484534352
O	1.462104635677632	67.49347115639576	83.83513403525828
O	4.245935786056114	65.49596155986357	88.1447418305812
O	0.7140989960732003	63.314535354273744	82.58112006726002
O	4.955209841247264	65.71497685835938	86.84791399254425
O	3.3401811891808766	71.88019878369545	79.99629187850822
O	1.2844459704543278	71.2576586540225	79.2424322481756
O	2.666515550814221	71.80820825523301	81.3251247247591
O	1.4551090455916595	70.19850979536983	80.26723671553603
O	1.9970897241963566	68.65385897715848	83.47959181065944
O	3.4856858269152244	66.77270434045727	85.14275986033125
O	1.4538599473788671	63.58630941332781	83.76837136968041
O	0.7683936947424388	63.299192058040106	84.90865727705875
O	2.1136196983408797	66.88236028908163	84.9110001405871
O	1.655996340332588	65.51203652959154	84.82686820626036
O	2.1458196109574046	64.72180721849803	83.81615316576155
O	1.7486574966047492	65.00604953307081	86.04582046105187
O	1.04053974422103	63.2416553917196	87.0893179902877
O	1.1537575437139849	71.1001886991855	83.76731932743219
O	-0.20335121104702303	69.85353065676233	82.39782944570632
O	4.176983693560137	65.76560863536659	85.70246811957905
O	1.248068581477427	63.80909012335041	86.03181584182485
O	2.5285608760761322	71.80783682267949	78.85801338533349
O	2.1167010375434563	70.50770566452121	81.45669747377634
O	1.2234681511815477	69.99366104963205	82.76898233230763
O	0.09038098058522381	61.47623373690211	84.90271372169286
