83

O	-0.7466943593571426	3.3768317317755105	1.619800332244898
O	0.7304554121428574	3.1600726417755105	1.480089662244898
O	1.1238374421428574	1.8244626217755102	1.354246382244898
O	0.4202071721428574	0.7367903117755104	1.847197672244898
O	0.5740019921428575	0.0128280537755103	3.0566050522448975
O	-0.003283934857142512	-1.2355393782244897	3.3529390122448977
O	-0.20366503285714255	-2.0627927282244896	2.3189289622448976
O	-0.11820188885714256	-1.6108062982244897	1.084741122244898
O	-0.25903524585714255	-0.21931564722448968	1.081906562244898
O	-0.8493955982571425	-3.5889952882244898	2.638083932244898
O	-1.7681776068571424	-3.7518398382244897	3.778091202244898
O	-1.3974054828571425	-4.38577801822449	1.549714012244898
O	-1.2095422808571425	-7.19800739822449	6.550748892244898
O	0.6418409621428575	-4.29236709822449	3.052897942244898
O	0.8806991821428575	-3.6791065282244895	4.327072532244898
O	-0.13661461385714257	-4.23072451822449	5.247830612244898
O	0.1223968031428575	-5.60347990822449	5.436383012244898
O	1.0343267821428577	-6.04221518822449	4.425571712244898
O	0.2835230921428574	-5.63692819822449	3.210620742244898
O	-0.9479355848571426	-6.50990975822449	5.245261402244898
O	0.1472543301428575	0.1415654077755103	-0.2639617547551021
O	-0.5037049018571426	1.1355325697755103	-0.7763278137551021
O	0.02720348014285745	1.4075668817755103	-1.971069057755102
O	1.0913149921428573	0.6690492187755104	-2.336978817755102
O	1.9993994921428575	0.1733866693755103	-1.486180507755102
O	1.5422433421428576	0.1600169691955103	-0.2883001407551021
O	-0.35578712285714253	2.3203562217755103	-2.703612777755102
O	1.7047678521428575	0.5083912457755103	-3.542338047755102
O	2.3348199221428576	-0.6539283982244897	-3.375864757755102
O	2.4328433021428575	-0.9419469482244897	-2.017738907755102
O	1.6566276721428577	1.5333239517755102	-4.611580117755102
O	3.5469457321428575	-1.7279138182244898	-1.564791237755102
O	3.418866842142857	-1.9181747682244896	-0.04591313295510206
O	2.6911295921428575	-3.2539993482244896	0.11583349224489792
O	14.293973022142856	-1.3792437782244897	-0.971605197755102
O	10.913494222142857	-3.0617446582244896	-0.4135071017551021
O	9.592429822142856	-6.02916688822449	1.569478912244898
O	6.606833032142857	-6.64164444822449	3.786409032244898
O	4.590523732142858	-9.74508345822449	2.8371385122448975
O	5.284469092142857	-10.20732776822449	-9.207922227755104
O	6.663916522142857	-11.24694816822449	-5.7905296177551016
O	3.6851622821428576	-10.74739106822449	-3.4427566177551023
O	4.905117662142858	-13.65499176822449	-1.336094577755102
O	-1.3488110578571426	-3.3403751982244896	-8.703939607755103
O	-3.5926173878571426	-1.4636733182244899	-11.134755757755103
O	-3.0143412078571425	1.8651970217755103	-9.292352307755102
O	-5.2298942778571424	0.6270439707755103	-6.447539147755101
O	-8.071762127857143	0.4456987597755103	-9.066947697755102
O	-5.038962957857143	6.60676266177551	-6.8725906877551015
O	-1.5743138908571426	10.64756313177551	-5.877269267755102
O	0.18093680514285748	7.42029740177551	-6.592698327755102
O	-0.5560876628571425	6.17736885177551	-3.095793867755102
O	1.4383255921428577	9.04736040177551	-1.723348707755102
O	4.349328672142858	8.03184258177551	-3.9541390977551023
O	4.214241402142857	4.68420429177551	-2.367005757755102
O	4.156050832142857	6.11724298177551	1.084016032244898
O	7.116245792142857	8.33026365177551	0.24835089524489795
O	9.186800512142856	5.35713139177551	-0.9037828317551021
O	8.370094272142858	3.4233016817755106	2.2414779722448976
O	9.067713552142857	6.31779842177551	4.605640702244898
O	13.205454722142857	3.3728797717755103	3.2471299122448976
O	7.678447422142857	-0.6150745352244896	11.213771242244897
O	4.727781722142858	1.8394047517755103	11.105909542244897
O	4.542327962142857	0.8433441577755103	7.4226670922448985
O	7.944290002142858	2.5293600717755105	6.809451142244898
O	-2.4301038478571426	5.75962611177551	9.229529812244897
O	-2.2132538578571426	5.40085237177551	5.450342522244898
O	-5.987381217857142	5.32639107177551	4.931562002244898
O	-6.298890107857143	2.5513203017755104	7.508704672244898
O	-3.6303014878571425	0.6992227107755103	5.827570872244898
O	-7.993058857857142	-0.27001148022448973	3.3261763522448984
O	-6.074582747857143	-3.1362680282244897	4.861049582244898
O	-4.212798147857143	-3.6263616682244897	1.6953761422448979
O	-7.114876457857142	-3.5760404282244895	-0.4611086317551021
O	-8.961381077857144	-6.06868227822449	1.746280802244898
O	-6.170071807857142	-8.54052075822449	2.1451443322448975
O	-4.492713367857142	-8.34907032822449	-1.2189744377551022
O	-6.403331557857142	-6.61240483822449	-3.9480247377551017
O	-10.184414577857144	-7.20058422822449	-3.849403137755102
O	-10.873565777857143	-1.0426533882244897	-6.252851077755102
O	-11.782287677857143	1.3275173517755101	-0.38069130875510204
O	-9.856954197857144	5.37025514177551	2.1742057222448983
O	-9.607201307857144	6.43601146177551	8.238247932244898
