26

O	2.0418038652845336	61.89817278777503	87.0500792521053
O	3.25258134848473	65.01663749129914	87.61636263798485
O	2.7236967407827803	65.05885244276716	86.2567233446287
O	1.5121755542845525	64.3798715523363	86.54881940359388
O	0.5982000169580421	65.30947712306175	86.33226568238989
O	-0.6123581308720465	64.85427621338694	85.87159877773918
O	-0.6715494110309213	63.75725501000984	84.96630079450678
O	0.009363980966656138	62.79542712439184	85.71618194292597
O	1.1751698342358792	63.12119039272865	86.41110905426129
O	-0.27066613859256483	64.11947927539268	83.57930363710618
O	0.715070285615665	63.45171188158774	83.04720628174731
O	1.9061793322909688	64.10698717880317	83.23354328458262
O	3.0149020636480994	63.377107386567616	83.76415184373094
O	1.545403120055132	65.45436533577352	83.13357107282349
O	1.989382486746636	66.63184516190994	83.6662880504501
O	1.404392398736444	67.7087608383936	82.92131131387318
O	0.07212642081987553	67.62412100964785	83.19177533039226
O	-0.3616133949521336	66.47818128243433	83.80103951133614
O	0.19945775587841907	65.3800020517634	83.24339106494533
O	1.6454414481508488	68.80888513413336	82.02502867988879
O	2.456626700624536	69.62289596113757	82.46180757854009
O	0.6512371138136415	69.60983223403926	81.35763958737941
O	0.6594583778123084	71.31411561699412	81.26027795881497
O	1.444566899443853	71.98544473375811	82.31862080158933
O	-0.7310890415172453	71.90703300309242	81.32926552646221
O	1.3198818008760669	71.7754805631044	79.68854204969807
