34

O	2.012329543137066	69.8108394592124	80.44289973288274
O	0.5789118974153266	70.15053818672668	80.56630995406333
O	2.03970217951856	70.64419890014497	78.33623766986267
O	2.048304863992845	69.41971278878339	78.97004199229565
O	2.148076072923182	65.3916385356453	83.30826809265434
O	2.1026330291037922	64.12144496803637	89.28606473697376
O	0.6781677495739782	71.01510528090726	78.38239867737659
O	-0.16221234928153128	66.0017686706239	82.43656234589221
O	2.0158960565531854	67.2800619605569	84.433763883767
O	0.6027463420946089	71.3534760440938	79.8298055199048
O	0.6138738843525965	64.54084336935793	87.65011724961678
O	3.1252826672049965	65.38695257028618	85.69339891669989
O	-0.007368457670707151	64.85025344517666	83.13841344733768
O	-0.8618248828690425	63.00550613296184	84.33522251014159
O	1.255907520400259	64.4799199006566	83.17406110833163
O	0.7171882920079484	68.25166010939789	82.0415693747301
O	1.7535315353077425	66.6044991292705	83.46013439244601
O	0.6848103314264579	67.02163188416829	82.71778462501823
O	0.29616517277089227	62.778505694359865	86.152785257843
O	-0.09937119465512834	63.941709570515805	86.7391113225586
O	1.228334136013855	63.60683457954236	88.36326740488909
O	1.9528641040380517	62.76963304273902	87.60434386290946
O	1.0199697985538325	61.96358668727356	86.88358397107349
O	-0.9991882784546857	64.07254255851278	83.57960166379743
O	0.38064233720172413	62.89925605908002	84.748345717793
O	1.3694821391709113	63.52379533060142	84.12365675512652
O	2.590393153192144	65.3940240237775	89.0866365458877
O	3.454521580873595	65.0620070859083	83.66401542506722
O	3.7443662297198537	66.2040714168251	84.68401542189879
O	4.200469331440487	64.69520437617439	86.1891065194812
O	5.1277982865134	65.37683249111136	87.17703182443553
O	5.381638898714739	64.27396197833123	88.20148384861892
O	0.6946528784032335	67.88068780985537	80.60252322126595
O	-0.07512559938072227	69.01456985995499	79.99827878332285
