79

O	-4.075462734632653	1.5806452832877553	2.4592661233469384
O	1.3071213253673466	4.115946703287756	-1.0313761666530614
O	6.126727015367346	-8.022442356712245	-1.0305690466530617
O	0.9117477053673466	-3.2487028167122447	1.6566909033469384
O	-0.3139012666326534	-2.649844816712245	1.5682197533469386
O	1.8307768753673463	-1.2739187867122446	1.0363935843469385
O	-3.7648144646326536	0.6027103572877553	1.3297225033469386
O	1.1118790353673464	2.6352045932877552	-1.1299502166530613
O	-2.8120858346326534	-0.3534116967122446	1.9868116033469385
O	3.9881610153673464	-7.217730466712244	-0.0944625086530615
O	5.687308595367346	-5.770150176712244	-0.06237410265306148
O	3.6180533053673463	-6.353465016712244	1.0794888433469385
O	4.564084215367346	-4.832751696712244	-0.23989353465306146
O	2.0433608753673465	-2.5620787467122446	1.3743002833469387
O	-0.5924958296326535	-1.2796444567122447	1.4161032233469384
O	0.11167191136734661	2.2139699932877552	-0.15535417765306148
O	-0.06557272163265343	2.9854405532877553	0.9469541823469385
O	0.6670379253673466	-0.7112069047122447	1.6121383233469384
O	0.4004738453673466	0.7070851802877554	1.4407922633469386
O	0.1926308573673466	0.9101456192877554	0.08186357234693853
O	-0.6569195566326534	1.2726807032877554	2.1342379433469385
O	-1.5091624446326535	3.2543852132877555	2.6060624433469384
O	4.589502635367347	-3.0808313967122447	1.6645088533469385
O	3.2487583253673464	-4.435209116712244	2.9492286933469383
O	-1.7537227846326535	-0.6544509577122446	1.1325285083469385
O	-0.9580840536326534	2.4901933232877553	1.8271134333469385
O	5.400210175367347	-7.1500431167122445	-0.2279686446530615
O	3.4007409653673464	-5.019639806712244	0.5235434613469385
O	3.2820847953673464	-3.7245677067122447	1.6040232733469386
O	-0.1598635466326534	4.676261223287756	0.5750803323469384
O	-4.024714024632654	7.512206413287756	-5.325844976653062
O	-2.0692514346326534	3.0293588532877553	-11.655022916653062
O	0.06548399936734656	-0.00023677391224462274	-12.447561816653062
O	1.9694349353673464	-0.7366415867122447	-9.24224545665306
O	4.600125175367347	-3.2022545667122446	-8.04509228665306
O	5.033919705367347	-5.220373266712244	-4.975407586653061
O	8.547151515367348	-4.830501676712244	-3.3374073966530617
O	10.378788085367347	5.825163413287756	-12.222751916653062
O	11.175580885367348	6.835011423287756	-5.032504216653061
O	11.467949285367347	3.2296706032877553	-6.255362766653061
O	10.877274085367347	1.2405495632877555	-3.0322402666530617
O	13.106323485367348	-1.5295091267122447	-4.298623336653061
O	5.261806505367346	8.120987943287755	2.2586835133469383
O	4.1151682553673465	11.061827283287755	4.3883678733469385
O	0.45483648336734656	9.894457283287755	4.310016573346939
O	1.3373781753673466	7.031091033287756	6.701515793346939
O	2.2972111753673468	9.783964253287754	9.20131349334694
O	-5.822371004632654	8.272136203287754	1.7820160633469384
O	-5.3529148846326535	4.660187623287756	2.7488900233469384
O	-8.628321034632652	3.822075603287755	1.1126288393469386
O	-7.431586694632654	5.498321113287756	-2.0354520066530615
O	-4.468689154632653	3.2049802832877554	-2.0256622966530617
O	-6.531894884632654	0.15912696638775536	-1.5549430166530613
O	-8.805045084632653	1.2624696132877553	-4.344381546653061
O	-5.888982324632654	1.6260354732877553	-6.7527999066530615
O	-4.528435544632654	-1.8002911267122446	-5.805982306653061
O	-7.954587244632654	-3.5072290967122446	-6.095838556653061
O	-8.601704714632653	-1.7194775967122446	-9.369670306653061
O	-5.295822724632654	-3.0888654167122445	-10.589833116653061
O	-6.198718664632653	-6.580719956712244	-9.442112216653062
O	-2.6910821146326533	-11.388727216712246	-4.6892072066530615
O	-4.7461010446326535	-10.512525816712245	-1.5305788866530614
O	-2.8336295546326533	-7.172167986712244	-1.7622024966530616
O	-4.649033334632653	-6.415560886712244	-5.062208126653061
O	-7.361285824632653	-7.213697566712244	5.7803970133469385
O	-6.168042004632653	-3.6203316267122445	5.169555283346939
O	-5.570695584632653	-2.8446401567122446	8.84358240334694
O	-3.4675254746326534	-6.003640696712244	9.219957823346938
O	-1.4971212246326535	-5.008680556712244	6.181382443346939
O	0.4600992003673466	-2.508607396712245	10.238491083346938
O	2.7162705353673466	-4.774150436712244	8.226757743346939
O	3.759118805367346	-2.094432956712245	5.794389963346939
O	4.387231065367347	0.3762259772877554	8.616110673346938
O	6.512472255367347	-2.1118252367122445	10.515970883346938
O	8.665641175367348	-3.2403067867122446	7.692095613346939
O	8.976873275367348	-0.03275573771224462	5.667080703346939
O	8.005131345367348	3.1873370732877553	7.470808563346939
O	3.4658823653673467	6.975758263287756	12.143162383346938
O	-7.049596194632653	-5.450791006712244	12.867762183346938
