86

O	0.6204381412500003	-0.5610411298461542	1.842888018311539
O	-0.5912080487499998	-0.7266817498461542	2.2463741283115395
O	1.0559989772500002	1.8808125601538457	-1.512579107688461
O	-1.5537614927499996	-0.8612579798461544	1.3733653883115389
O	0.4943107522500002	-1.209149869846154	-1.321035805688461
O	-0.15832159074999974	-1.650724609846154	-7.627112471688461
O	-1.0992465507499998	-1.538649779846154	0.29940761831153906
O	1.3682911572500003	0.5368118991538459	0.0029610023115390627
O	1.33281678725	3.5234440901538457	3.709534258311539
O	0.2044118692500002	-1.403251799846154	-0.053201913688460944
O	0.7578403472500003	0.1219458601538459	-3.3703764216884613
O	3.36738757725	1.5398955051538459	-0.4019712036884609
O	0.9909293972500003	-0.5493413598461543	0.6347093883115391
O	-1.3826519627499998	-1.534167219846154	-5.1235415516884615
O	0.6338864162500003	-0.08101152984615423	-2.011832581688461
O	-0.5786678677499998	2.6253320501538457	2.914783008311539
O	0.6282050862500003	0.8558568041538458	-1.016513388688461
O	0.48299423725000024	-1.095378159846154	-4.011343541688461
O	-0.8492020847499997	-1.3339600698461542	-3.8238395716884606
O	-0.7674843967499998	-2.694837839846154	-5.698957021688461
O	-1.2059104417499997	-2.457095879846154	-7.144795621688461
O	0.2017400192500003	-0.7917139598461542	-6.572612561688461
O	-1.1569187847499998	-0.4037249898461541	-6.059722521688461
O	-0.8329182007499998	0.26037215815384585	3.245841368311539
O	-0.25208651444999974	0.42139328315384583	4.4281167083115385
O	0.5353576952500002	1.5305473941538459	4.453907918311539
O	0.5545109802500002	2.4242165401538456	3.541634068311539
O	-1.1636628077499998	1.4597497621538458	2.6778156283115395
O	1.5709353272500004	1.6900023971538458	0.8004649183115391
O	2.3741317772500006	2.524548590153846	-0.25194881168846095
O	3.7760155272500002	1.5777065861538457	0.9628648483115392
O	3.8783547472500004	2.929597440153846	1.596627318311539
O	4.11334183725	2.576183120153846	3.0766187683115387
O	1.4236978972500003	4.476738620153846	2.723189648311539
O	3.6348513672500005	-5.022825089846155	8.642643428311539
O	6.145134967250001	-11.004671509846155	4.030794788311539
O	5.90220910725	-12.100810709846154	0.4371578983115392
O	3.4810768672500005	-9.719189509846155	-1.2160336596884609
O	1.8378935172500004	-9.203839509846155	-4.596353381688461
O	1.17284811725	-6.240974199846154	-6.765488061688461
O	-2.43851335275	-5.956536559846154	-7.985829081688461
O	-5.18530195275	-16.224057209846155	1.3399958983115392
O	-8.77523033275	-9.850995009846155	1.563718428311539
O	-7.101518972749999	-10.693307109846154	-1.758095063688461
O	-6.89611363275	-7.2526208698461545	-3.4963601116884613
O	-7.2242434827499995	-8.937343709846154	-6.8189947816884615
O	-10.661007802750001	-10.212580009846155	-5.811924231688461
O	-10.75224900275	-5.227613009846155	-7.8271923716884615
O	-7.0469154527499995	-1.2046748798461542	4.649923218311539
O	-8.01747143275	0.8035587141538458	7.734297038311539
O	-4.532087982749999	2.1721174901538456	8.374456828311539
O	-4.9608475927499995	4.473436160153846	5.363609108311539
O	-7.8501603827499995	6.093526520153846	7.2653838083115385
O	-0.9598942097499997	6.516228590153846	9.51674396831154
O	4.04790421725	5.175660820153846	11.372783268311538
O	2.2297225072500004	2.1396277281538456	9.938803568311538
O	3.1041454872500003	3.335818510153846	6.575286828311539
O	6.70439230725	2.9962694501538456	7.107584618311538
O	6.19748616725	-0.5527189198461542	8.284769198311539
O	4.608523997250001	-1.379769569846154	4.971394208311539
O	7.60089032725	0.1029870101538457	3.146071608311539
O	9.95840829725	-1.8083389898461542	5.138322958311539
O	8.27419239725	-5.071823589846154	4.2843243583115385
O	8.216260167249999	-4.2924117398461545	0.581095828311539
O	11.02766499725	-8.261739929846154	-0.1817216396884609
O	9.753424397249999	-2.783885719846154	-9.05486835168846
O	9.80278839725	0.7102064781538457	-7.587273181688461
O	7.00290115725	-0.5851859898461542	-5.311392811688461
O	9.62107353725	-2.978307179846154	-3.707891591688461
O	8.34718846725	7.975480030153846	-4.132606241688461
O	6.20188753725	6.626512840153846	-1.2184229296884608
O	4.15263478725	9.884767300153845	-0.9807988558884609
O	3.3881182372500005	9.703360310153846	-4.657815441688461
O	2.3799196872500006	5.997313820153845	-4.233254671688461
O	-1.6404196727499998	9.013106940153847	-3.1741050816884613
O	-1.8360861327499998	6.524140600153846	-6.025717511688461
O	-2.9972779027499996	3.7095825301538454	-3.956088941688461
O	-5.505706602749999	5.873157600153846	-2.0787363516884607
O	-6.91771979275	7.066172960153845	-5.343596261688461
O	-6.989601232749999	3.701872240153846	-7.124755831688461
O	-7.8800984527499995	1.4496489221538458	-4.248830501688461
O	-9.13142159275	3.1389688201538455	-1.121954212688461
O	-11.33002150275	6.254087340153846	-1.6525807626884608
O	-8.75915955275	8.720092820153846	4.026196808311539
O	-4.36501923275	12.030846990153846	0.6718533983115391
O	4.96054623725	14.377670990153845	-2.9485291416884607
