29

O	4.322122607618985	64.2149236788572	87.86822338177723
O	-0.2576048585760973	61.617590350770655	84.26662515102844
O	0.1196842288787936	71.89142879317005	77.03708563719893
O	2.756100405866131	68.78447126015695	82.84733649550627
O	3.5420920094063058	67.80552968907448	83.39377009190764
O	1.0149095193862785	67.35850918887691	83.06866644412251
O	0.7406674152626025	63.44821659221751	85.93683947557139
O	4.662293857091109	65.45502681605379	87.02626797231417
O	0.19109951039072492	62.870365419099244	83.59059219657118
O	4.201434241215017	65.04940709120527	85.68606849778915
O	0.25938344105644795	70.2779541576995	78.85059314902082
O	1.9329513087946175	71.83477498984844	78.64772855643443
O	1.4425694623348249	69.58368536891457	79.535739090665
O	1.8246058557285447	71.76549832076866	80.12491261167659
O	1.1985180374793467	63.45963545683874	84.65629577830404
O	1.4483753993723976	68.55135352576178	82.61369487340117
O	3.0806309119910047	66.80020286797888	84.26225575760111
O	1.714591958876939	66.89687798561927	84.20338844309447
O	1.207124687421484	65.69593038933718	84.88292565244365
O	1.1789678569218673	64.41000074118786	86.74006671149957
O	1.5050833807887178	64.61168483033651	84.10644069335181
O	1.5028171977064124	65.5731678528576	86.17542577052095
O	1.378787950913828	64.3092416148534	87.9346112532534
O	0.9028926578144467	71.22638961382894	82.69654333979467
O	-0.47126429833475414	69.9710538139726	81.33818202246545
O	3.8865154872333836	65.80891875929261	84.64957507736982
O	0.9665206542378227	71.12190780777013	77.88103422619642
O	1.8584630121036774	70.43344686861462	80.54997532397985
O	0.8783315745266841	69.9866257180332	81.88647649260619
