87

O	-1.8516000632413785	0.08917519653448258	2.9575062964224133
O	-1.4426864896413785	-0.9146472004655173	3.8038897664224134
O	-0.14474634124137853	-0.8299533004655173	4.133844936422413
O	0.3412028187586216	0.27131225453448266	3.5491333164224135
O	0.0656136187586216	0.8786244885344826	2.3197662164224133
O	-1.2209187292413786	0.8540440465344826	2.0890870164224133
O	-1.4366748542413785	1.7195124555344825	1.0349554264224132
O	-0.4743735812413785	1.5303976415344827	0.16407438442241323
O	0.4743715687586214	1.0419622635344825	1.0232804664224133
O	-2.5624467812413787	2.2210673795344826	0.18372740442241325
O	-2.1059366742413785	2.8619481795344823	-1.1339840805775867
O	-1.6703500072413784	1.8640931595344827	-1.9982702635775866
O	-0.9041190962413784	1.0961493475344826	-1.2422025245775867
O	-3.1509904512413787	3.6823252695344824	-3.4028866935775866
O	-2.0433472972413784	3.0383080195344823	-4.109078853577587
O	-2.0903350912413785	1.7687190795344827	-3.2958968135775866
O	-4.365841621241379	3.4516059795344827	-4.231954293577587
O	-2.7647621912413785	0.8075017739344826	-3.5813221035775866
O	-0.8449296272413784	-0.32439787046551727	-1.0263180885775867
O	0.3924180187586215	-0.5393077304655174	-0.3860851046775867
O	0.8173069987586217	-1.5426878104655175	0.5654061044224132
O	-0.2446679712413784	-2.1415478404655177	1.1047733264224133
O	-1.4330407322413785	-1.7137222304655173	0.6676153864224132
O	-1.8448491282413784	-0.6002047404655173	-0.06939414457758675
O	1.6768716687586214	-1.7107576304655174	1.7180780864224134
O	1.5445236887586213	-3.0566548204655177	2.0415339264224133
O	0.18110509875862157	-3.002247160465517	2.1231620164224134
O	-3.1267516012413785	3.610151089534483	-1.9562943935775867
O	-4.157518011241378	3.053218289534483	-1.5839201035775867
O	7.258881558758621	5.314214169534482	5.623129216422413
O	-0.9255930002413785	7.318050149534482	14.478662866422413
O	7.677122608758622	11.032400819534484	0.05531103642241325
O	5.6260047187586215	12.407164719534483	-2.7954478335775867
O	2.2903722287586215	10.586869989534483	-2.5889803335775867
O	-1.0007758152413784	10.707882159534483	-4.468587753577586
O	-3.3876374212413785	8.138333999534483	-5.843049313577587
O	-7.026372111241378	8.618962599534482	-4.732765263577587
O	-5.956439221241379	12.904789219534484	6.582582646422414
O	-6.281859321241378	13.614413119534483	2.8453615064224134
O	-7.853160131241379	10.420759059534483	1.5287341864224133
O	-4.3490447612413785	3.833982049534483	8.734475326422412
O	-3.8088173612413785	1.8134896095344826	11.793098666422413
O	-0.9584787522413785	-0.1911382684655174	10.424391666422412
O	-3.4549448012413784	-2.0560353304655177	8.150277466422413
O	-5.025110771241378	-3.2766726404655175	11.453680166422412
O	1.5503857087586217	-5.075669770465518	9.224541696422412
O	3.7635349687586217	-6.843937460465518	6.747656946422413
O	6.767960118758622	-4.885635060465518	7.925090026422413
O	5.161375298758622	-1.4748652404655174	7.685314116422414
O	3.5275620687586215	-2.436488870465517	4.455814566422413
O	6.877525718758622	-2.996678840465518	2.9149655064224134
O	7.970013888758621	0.4517032295344826	4.007510406422413
O	5.0416563787586215	1.8005420795344826	2.1420718864224133
O	5.936649788758622	-0.09457254246551738	-0.9597995865775868
O	9.473931468758622	1.1362227935344826	-0.7886710825775867
O	8.376097948758622	4.756277499534482	-0.6731696855775867
O	6.013839878758621	4.261283459534483	-3.6213773535775866
O	8.586566968758621	2.4532739795344827	-5.748851193577587
O	11.146507368758622	5.083598039534483	-4.816427453577587
O	8.69064946875862	7.709355889534482	-6.027118403577587
O	8.02023269875862	5.803384559534482	-9.213898193577588
O	5.0661444887586216	4.6610700995344825	-12.924198933577587
O	1.6409963087586215	3.1752868895344823	-12.424079633577588
O	1.9281212287586216	-0.4111646404655174	-11.155079533577588
O	1.3903619487586216	1.0586262135344826	-7.684239443577587
O	4.628085698758622	2.9963165995344827	-7.905898543577587
O	5.851061108758622	-5.767045670465517	-6.778305753577587
O	4.4475845787586215	-9.331904180465516	-6.716858613577586
O	1.1496374187586216	-7.398008430465517	-6.874473323577587
O	1.2550310687586215	-5.876476370465517	-3.2992964435775867
O	-0.8628853132413784	-8.582969200465516	-1.7002061135775868
O	-3.475079991241379	-8.131385480465516	-4.506637773577586
O	-3.4486246112413785	-4.376970290465517	-4.0596351135775866
O	-6.579883061241378	-6.597905020465517	-0.48092278607758676
O	-7.900631731241378	-3.9454299804655175	-2.884897423577587
O	-6.967094901241378	-1.1440075404655174	-0.6355878205775868
O	-8.500835601241379	-2.8394230104655174	2.387924226422413
O	-11.738121631241379	-3.549113800465517	0.5422259264224132
O	-12.170304731241378	-0.11077995246551742	-1.0572913475775867
O	-10.967677021241379	2.0299880895344824	1.8353625464224135
O	-10.428169081241379	0.39066714053448265	5.238793186422413
O	-8.04810907124138	-5.421727800465518	9.436504976422412
O	-7.0959424412413785	-9.241031710465517	4.421622556422413
O	-2.8316235912413785	-10.799667180465518	1.9726098364224134
O	-5.454672001241378	-12.805812080465516	0.14442172142241322
O	-2.1955129832413784	-13.096901580465516	-3.7225143735775865
O	1.5795065287586214	-15.719490280465518	-5.663868453577587
