73

O	-0.6650119545535087	-1.7077415391052635	1.6369868832631578
O	-1.4477503545535086	-0.6705217031052636	1.9171292232631578
O	-2.6812285405535086	-0.8296291091052637	2.208373693263158
O	-1.3825675825535086	0.5432002408947364	1.2940536032631578
O	-0.1994592415535087	0.8638466948947364	0.7853757762631578
O	0.6331852994464913	-0.22176519610526357	0.49290257026315776
O	0.1481913714464913	-1.5063144791052636	0.5524657692631577
O	0.7680432894464913	-2.3904929391052634	-0.04150269773684225
O	1.8575365994464912	0.2242711598947364	0.6832786212631577
O	1.7721284694464914	1.5160231808947364	1.1106175132631577
O	0.5222410194464913	2.0004400208947364	0.8847493002631578
O	-1.1384416065535086	-3.0492580891052636	1.6172518132631577
O	-2.3666769805535086	1.5845860008947363	1.3379378932631578
O	-2.345083910553509	2.0942704108947363	2.778872083263158
O	-3.7974689005535085	2.0350373508947364	3.164443913263158
O	-1.9791731405535087	3.5460579608947365	2.6436889932631575
O	6.870909849446491	0.5341304808947365	10.807817823263159
O	6.267592959446491	1.9639262008947365	7.387482593263157
O	5.693500609446492	5.721301010894736	7.632200463263158
O	11.986861809446491	6.037464790894736	-1.4084593267368422
O	9.182372379446491	8.305032780894736	-2.570179396736842
O	8.12935447944649	13.785191900894736	-1.7280431167368422
O	1.0759245694464914	5.555260200894736	12.354126623263157
O	-2.588051790553509	6.496749600894736	12.442913823263158
O	-3.8684583005535087	5.631598690894736	8.938675583263159
O	-7.181580110553508	5.928092910894736	7.084680783263157
O	-9.16275233055351	3.6251364008947364	4.788780353263157
O	-10.21983048055351	5.260517890894737	1.4985566132631578
O	1.6428101494464915	17.019088000894737	-0.09680993573684224
O	-0.7621990580035087	12.285116800894736	-1.1945218667368422
O	-4.188973550553509	11.967101700894736	0.44328256026315777
O	-5.661512190553509	8.969245560894736	-1.3618135667368423
O	-6.444845770553508	10.897056800894736	-5.552663346736843
O	-9.73038386055351	9.025849900894736	-5.961918676736842
O	0.5691694094464914	9.574804400894736	-5.433851486736843
O	5.737567609446492	7.950019140894736	-6.260729146736843
O	2.901898819446491	4.021136880894737	-3.860711626736842
O	6.211105129446491	3.1403400508947366	-5.675448526736843
O	6.742555949446491	0.1488064968947364	-3.3196271267368425
O	3.902770069446491	-1.6935598291052636	-5.043356036736843
O	6.087121819446491	-1.5011053291052636	-8.229594806736841
O	7.7640944794464914	-5.325605909105263	-2.4149995667368422
O	7.102889799446491	-8.223205449105263	-0.09484239173684225
O	9.412234609446491	-6.729533969105264	2.505405953263158
O	7.852310079446491	-3.2976690191052636	2.4609560232631575
O	4.401132759446492	-4.860969299105264	2.270202173263158
O	5.028467889446491	-6.528251479105264	5.575024813263157
O	6.027571949446491	-3.1792681391052637	7.0721996832631575
O	2.7262543994464914	-1.7796243891052637	5.9178585932631576
O	0.8792106294464914	-4.710551599105264	7.413858593263157
O	2.7135795594464915	-4.297417429105264	10.712588423263158
O	1.7433488794464913	-0.6327406471052636	10.967894123263159
O	-1.8862671105535087	-1.4385757691052636	10.259027623263158
O	-7.286725670553508	-4.3644993191052635	7.048282203263157
O	-6.055795550553508	-3.4979196591052637	10.540096023263159
O	-5.5589045605535095	-12.085147399105264	3.756522403263158
O	-2.760586790553509	-9.753859399105263	2.7431571932631575
O	-2.2660455805535085	-11.383202499105263	-0.6545201477368423
O	-5.982269150553508	-11.019153799105263	-1.3759983467368422
O	-5.9151838105535095	-7.363217659105263	-0.26507730473684227
O	-4.314190050553508	-7.730223829105263	-5.1935289267368425
O	-7.344815410553508	-5.616482219105263	-4.291809196736843
O	-5.2178459205535095	-2.5617673391052636	-3.545045166736842
O	-3.3422322805535085	-2.9813625691052636	-6.789771046736843
O	-6.497693640553509	-3.422629449105264	-8.882464646736842
O	-8.536300930553509	-0.5971928641052636	-7.369638146736842
O	-5.764258960553509	1.9479934808947363	-6.881240116736842
O	-2.383298280553509	1.2743377148947364	-8.490703086736842
O	-2.628048760553509	-0.3015635771052636	-11.959664976736843
O	3.130162279446491	-3.4529530091052636	-10.562070376736841
O	1.7215701894464912	-6.261772599105264	-12.727306476736842
O	-0.11643489155350872	-8.668695149105263	-8.741025336736842
O	0.16114167944649127	-11.805579199105264	-4.684157796736843
