83

O	-0.7935148025470589	-1.53205430890196	-0.13317453068627416
O	-1.8545223515470588	-1.8204401189019603	0.5397453093137257
O	-0.8301717515470588	0.7973465439980397	2.712510439313726
O	-1.3625766396470589	-0.6901580989019603	-1.1256040299862742
O	0.020916955452941144	-0.6531893489019603	-1.4046734416862743
O	-4.184329894547059	0.1859371620980398	1.0761465993137256
O	-0.28675397454705887	-0.6232214289019603	0.8597562893137256
O	0.4773038154529412	-0.34828173890196024	-0.14676592068627436
O	-1.7895941335470589	2.11126462109804	-3.7944293906862745
O	-2.212770523547059	-0.5252678089019603	-2.2657318906862742
O	-1.9418354815470589	-0.5359048189019603	2.2782791493137253
O	-0.6372263315470589	-0.4097312189019603	2.2268127293137256
O	2.316395835452941	-0.061021040901960255	-4.012064870686274
O	-2.017604452547059	-0.6150363989019602	0.9835915093137257
O	-3.477963614547059	1.9654934010980396	-0.10181552068627431
O	0.723236035452941	-0.8214309389019602	-2.4564495006862743
O	-1.8244752465470588	-1.1214836489019602	-3.562500930686274
O	-2.0936586165470588	0.5332495610980397	0.19633371931372579
O	2.203107115452941	-0.3231102089019603	-2.6264017406862745
O	0.9784236454529411	-0.5498468589019602	-3.9029231906862742
O	-3.2102882645470587	1.1381009660980397	0.7801720093137257
O	-1.2326151671470589	1.4993410030980399	-0.31005700968627425
O	-1.5067590005470588	2.21670891109804	-1.5203302426862741
O	3.4839782454529415	-0.17219337690196024	-4.7652382406862746
O	-2.716308054547059	2.40726262109804	-1.1584644231662742
O	-4.300885104547058	-0.8555394089019602	0.29161787931372585
O	4.44969574545294	-1.2394487589019603	-4.329103600686274
O	-3.889725764547059	-0.27854783890196033	-1.0153389496862744
O	-0.8943809945470589	2.03261372109804	-2.9087888706862746
O	-4.905807934547059	0.27901983909803973	-1.6306095986862743
O	-4.713431864547059	1.2293187730980397	-2.8093244206862744
O	0.21429341545294123	2.21487078109804	-2.1191846666862744
O	-10.65218919454706	-3.3100065489019603	0.5760123293137258
O	-7.413687844547059	-8.10283765890196	-9.274827480686275
O	-4.747542844547059	-5.41145496890196	-8.662175030686274
O	-1.669981267547059	-4.05802186890196	-10.390584890686274
O	1.8354784054529412	-3.14220422890196	-9.258547200686275
O	3.0616104654529415	0.26228901609803973	-10.437186810686274
O	-6.819144334547058	7.143450501098039	-10.498719830686275
O	-4.5123165245470584	4.722294621098039	-12.349546020686274
O	-1.2782320696470588	4.9837801110980395	-10.316252320686274
O	0.6698991854529412	4.46419095109804	-13.536213420686275
O	3.5690641554529408	8.49363815109804	-11.886579220686274
O	-4.876269124547059	7.66429986109804	-1.0470191176862742
O	-6.385017744547058	9.432338391098039	1.913961609313726
O	-6.191063084547059	6.293292121098039	4.093363869313725
O	-2.411395504547059	6.6984863410980395	4.313481169313725
O	-3.1088472945470587	10.15463416109804	6.015879469313726
O	-4.811788974547059	3.78773224109804	8.841586679313725
O	-7.223520954547059	-0.8365116589019602	9.959321279313725
O	-7.594620784547059	0.05857789009803971	6.296154089313726
O	-4.030576354547058	-0.9509013989019602	5.610432729313725
O	-4.832182664547059	-4.437446718901961	6.808774679313726
O	-7.711183694547058	-4.597196848901961	4.4601612493137255
O	-5.2725476845470585	-3.9035908289019603	1.7948508993137258
O	-3.028366064547059	-6.436873088901961	2.6794373493137256
O	-5.84130736454706	-9.00242216890196	2.8512814893137257
O	-6.923925914547059	-8.23590807890196	-0.7013352716862742
O	-3.4299997345470588	-8.499112258901961	-2.028466689686274
O	-2.695447454547059	-11.734315658901961	-0.22095785168627424
O	-4.974798544547059	-12.214045958901961	-4.941949810686274
O	5.415309875452941	-11.04466375890196	-5.465143300686274
O	6.086262875452942	-10.27743925890196	-1.8094668406862744
O	3.426259555452941	-7.574086838901961	-2.2139865706862745
O	0.7916129054529413	-10.26549675890196	-2.8001534806862742
O	6.836931125452942	-6.856071448901961	5.6221287893137255
O	3.752999105452941	-4.4918381589019605	5.344052119313726
O	5.406232535452942	-1.9267519289019601	7.685067599313726
O	8.512907545452942	-1.8935739989019602	5.467963759313726
O	6.313855495452941	-1.5908860289019602	2.376311169313726
O	6.987510865452942	3.0766988910980397	4.457758639313726
O	8.111460035452941	2.34230779109804	0.8477442293137256
O	4.8749131454529415	3.25363085109804	-0.4191178966862743
O	4.5735675054529406	6.421884881098039	1.5898365793137257
O	8.014952765452941	7.473535301098039	0.4237227793137257
O	7.612131485452942	6.60680524109804	-3.2508206806862745
O	4.065645535452941	7.684293451098039	-3.7394204906862747
O	2.4524861354529413	9.76346685109804	-0.9679182016862743
O	4.685278505452942	12.240705041098039	0.7743467593137257
O	1.0532526554529413	11.07744564109804	6.3479335393137255
O	5.491860345452942	6.864677921098039	8.298795219313725
O	5.26693428545294	2.0971371810980397	10.241969179313726
O	9.567536525452942	-2.2679352789019602	10.524059179313726
