30

O	4.412194601921218	63.99826280257018	88.44847543827373
O	-0.9786707050124146	70.46352491791237	78.05234033487913
O	2.71243968011452	68.53567447697964	83.50315714598595
O	3.5988715719184965	67.6105141421656	84.04204982059787
O	1.1035549545082566	66.94163245212992	83.44254096008508
O	4.707372207009699	65.2320661750762	87.58835195530315
O	0.5023011688882291	61.21455340867132	84.88423870322804
O	4.294551042130196	64.72315606384878	86.2661574551207
O	0.8505442325645005	62.27448261129447	83.90118397961452
O	0.04802051851241296	61.98286716034954	86.00588238050491
O	0.5520383910737665	70.82483430109473	79.5752650318637
O	-0.5983256597062743	68.86405460510261	79.82821004677645
O	1.6573951947083805	70.33450985460865	80.40651240278955
O	0.4916070528812708	68.12727490068916	80.49618666427249
O	1.3955860953061971	68.23121647027973	83.39049187421134
O	1.662125460253633	63.167253201305115	84.66264995454647
O	3.196199997568389	66.5158362778675	84.81815594752373
O	1.819413244091117	66.54894228517703	84.58650993073812
O	1.2315895400726609	65.32359777830993	85.0413515393809
O	1.140399257477776	63.025324308781364	85.90866655637198
O	1.6969599319112683	64.36885146650427	84.1491924847284
O	1.576912129793707	65.21938457481234	86.35894566673377
O	1.3428203188508987	63.84322234442537	87.96120921198644
O	1.023446467112491	70.8137024132925	82.97162990107867
O	-0.778632735457707	69.36249521540178	82.53474952496822
O	3.9291418738910346	65.47761569886262	85.21782458336075
O	1.2400540494891845	64.04005300787355	86.75897585624745
O	-0.02287658472140608	69.73200715300779	78.83705024155837
O	1.298788070149996	69.15162685655591	81.00810543377649
O	0.6571239291380407	69.46849589060687	82.52853325575026
