76

O	-4.6795814525	-0.5135454158800009	1.70551387574
O	-1.8730768425000002	0.5585182031199991	3.2821218057399997
O	-1.3924985945	-0.20955853988000084	2.13790910574
O	-2.2949572225	0.3492680892199991	1.1958900157399999
O	-1.4916294925	1.006593357119999	0.3779649797399998
O	-1.9033935225	1.0734737421199991	-0.9300297802600002
O	-2.5707440225	-0.030627529880000892	-1.5317998842600002
O	-3.6389871025	-0.1735336468800009	-0.6432548772600002
O	-3.4408608225	-0.08893158788000088	0.7357799857399998
O	-1.6561721824999998	-1.1556897478800008	-1.8686504242600002
O	-1.9255954725	-2.321931277880001	-1.3509545962600003
O	-1.2294414995	-2.511165327880001	-0.18373222026000013
O	-1.9420356824999998	-2.944032957880001	0.9774616457399998
O	-0.010496757499999898	-1.8735222478800009	-0.43506235136000015
O	0.9261847575000001	-1.2163106378800008	0.3119747537399999
O	2.1113003975	-1.071684887880001	-0.48271727946000015
O	1.7434061875000002	-0.23338724088000085	-1.49125990426
O	0.4031669725	-0.002775592880000899	-1.6432074042600002
O	-0.30989553049999996	-1.1481785978800008	-1.5366050042600001
O	3.4915341475000004	-1.445814247880001	-0.6460656422600002
O	4.1841212375	-1.1897542478800007	0.3368724767399998
O	4.3372025675	-1.147198017880001	-1.77346973426
O	5.9334540375	-0.5495503158800009	-1.6789859042600002
O	6.2557916475	0.1420204621199991	-0.41210150906000015
O	6.2533286875	0.4315125711199991	-2.7858410242600002
O	7.0454237275	-1.9069015478800009	-1.8802109542600003
O	-3.5693036824999997	-13.93573582788	-2.12186837426
O	-1.5137789975	-10.89258082788	-3.1218387342600002
O	1.8128053275	-10.07149612788	-4.80214067426
O	4.6599028075	-7.659251307880001	-4.08784830426
O	5.7492706875	-5.484628377880001	-7.06366381426
O	-4.7896092325	-3.303786287880001	-12.90586056426
O	-1.6830232124999998	-5.530376157880001	-12.50890696426
O	0.8212906275000001	-3.182164327880001	-10.84284166426
O	3.7163936075000006	-4.964507327880001	-12.50920976426
O	2.3135209275000004	-3.829889777880001	-15.85859446426
O	5.4342392575	-0.10903313088000088	-13.467190964259999
O	-5.8305821225	3.275474342119999	-6.01893273426
O	-8.2517090525	5.990962232119999	-5.15189772426
O	-8.2679353325	5.064767022119999	-1.4549392352600001
O	-4.8072301325	6.640858152119999	-1.0859750402600001
O	-6.4051784425	9.98417321212	-2.17062086426
O	-7.9536397825	6.605104872119999	4.01296295574
O	-9.8651186825	3.071684592119999	7.63284898574
O	-9.3587153225	1.4518318821199991	4.25906035574
O	-5.6363435325	1.3079717221199991	4.93828973574
O	-6.2358300725	-0.8980937878800009	7.88063636574
O	-8.3179126025	-3.228866567880001	5.72347694574
O	-5.3971916725	-3.611265337880001	3.4236441357399996
O	-3.0716625924999996	-4.335129837880001	6.41059378574
O	-5.4657682925	-6.929538007880001	7.666227975739999
O	-5.5478976724999995	-8.81257430788	4.37904138574
O	-1.7328908524999997	-8.794902027880001	4.15540252574
O	-1.8515261225000001	-13.73414812788	4.141241605739999
O	8.0455323675	-10.10939572788	4.55727580574
O	7.448195727500001	-7.217257837880001	7.00143580574
O	4.7560583875	-6.198927947880001	4.54943040574
O	2.7468714375000003	-9.32336929788	5.39337373574
O	5.6876988875	0.1829540351199991	10.21311073574
O	2.5191978375	0.8890123161199991	8.22959228574
O	3.0425822075	4.684429922119999	8.295329095740001
O	6.5336215875	4.196935022119999	6.90776344574
O	5.2111674175000005	1.9208060421199993	4.1976329757399995
O	4.6537065075	6.854979432119999	2.7250777457399997
O	6.8668288375	4.536115912119999	0.6962490757399997
O	4.0708914275	3.393209622119999	-1.3696931842600002
O	2.7793678175000003	6.921024492119999	-2.0251062442600003
O	6.2046690975	8.03422393212	-3.0821066042600003
O	7.0680259575	5.058085602119999	-5.32098578426
O	3.6822197575000004	4.375530432119999	-6.85218347426
O	1.0055588675	7.026127622119999	-6.37413313426
O	2.1964380675000004	10.66005607212	-6.47100122426
O	-2.6813842125	12.07760567212	-1.9901185642600001
O	1.5360032275000002	11.50006077212	2.85075222574
O	1.4600164675	9.05487427212	7.38832976574
O	6.212156487500001	7.398059092119999	11.02887823574
