30

O	4.124139475638386	63.89354685579346	87.72782423122834
O	-1.1401975158648743	62.7442860086966	83.1918413527456
O	0.5056668844568457	71.868757621928	77.62682622961852
O	3.232485504047612	68.77870960023473	83.37190325098538
O	3.9336381481432126	67.62924146131327	83.73699407395735
O	1.3184884699035602	67.5385514630271	83.52416850701857
O	4.717887643470029	65.24594843859323	87.49168994854344
O	0.3430101808322068	63.005675772620805	83.18084014236783
O	4.893083099514162	65.32231252014502	86.03827802962265
O	2.3176373071510765	71.93383820196077	79.24570756275727
O	0.7203821970523978	70.32037235979838	79.50541784134799
O	2.27663423656965	71.90645230042611	80.71624057976206
O	1.9644691947985193	69.70071035044994	80.15250010805399
O	1.9214358219524015	68.65092386799446	83.07831696453675
O	3.373605739669849	66.65401698675599	84.55443108556341
O	0.8268312871439327	63.67834127915862	84.31957661428306
O	0.43601318518573184	63.55262989767209	85.58864762167998
O	2.0097888919114713	66.93304219392661	84.59544069192255
O	1.319775979191279	65.73638409138871	85.03421215306344
O	1.4375866883743793	64.80430524534947	84.02082378821113
O	1.720779599887099	65.25251345473991	86.23076439403484
O	1.0503971347710253	63.72266426581585	87.72378225254539
O	-0.02207013936329294	70.0872842359638	81.89825982739647
O	1.3150444191746622	71.26415687771346	83.38837591337744
O	3.96522715587298	65.55958593368844	85.08832319714467
O	1.1864757499990861	64.09986786451425	86.56152647449343
O	1.3705431797629453	71.17876871582205	78.50856774462478
O	2.3376265976435704	70.58713754598912	81.17783350556603
O	1.329903773517608	70.11910439286619	82.45629143764972
O	-0.7308583301063762	61.91853319765218	85.97450154575871
