35

O	-0.3936493930461469	59.067916906690655	84.76224201703326
O	4.730485403437001	65.37502473164402	87.13202600033976
O	1.2864058746530989	72.33790068753169	76.73020444979964
O	2.905566588579683	68.6845377083464	82.98145598613578
O	3.566766235394181	67.66364508836513	83.65699710512617
O	1.018894508860575	67.49763707178869	83.21685040604686
O	0.05804033931953212	60.025103976121144	83.72451317388443
O	4.720727558391498	65.9458544742778	85.74248591493348
O	1.0690730162344866	60.9849709673154	84.05039628764855
O	1.4037615962685965	62.10753594211826	83.22518233389368
O	2.005933632308067	63.22093316853948	83.16389426561145
O	1.3161088196626185	64.25327757859402	82.31045047693773
O	-0.023715153728736338	64.05548510121855	82.22173212906716
O	-0.4413073044477256	63.317415477500205	83.52822288840855
O	2.3036172643308923	72.06960699167774	78.80905766328453
O	0.39382562421043055	70.98235405439809	78.57218166653104
O	2.0858110277556823	71.65231422840044	80.19733979246587
O	0.7578945846866096	69.99154677902285	79.60397949631532
O	1.6089908423289396	68.55157453759931	82.63671273547196
O	0.5961695001017187	65.12655758739227	84.26878404381605
O	1.5725399008626735	65.2261696882622	86.21527662486146
O	0.9689810427939076	63.827786721218246	87.78788846336943
O	-0.275969359681171	70.16440245197423	81.96754695839259
O	1.550505593259173	71.29704525492895	82.80632699378928
O	3.5588867913549453	65.57141685258588	85.00095977197856
O	2.9448541026576454	66.5807508734711	84.29935910924252
O	-0.07963604610440389	64.11455898397143	84.59882902289777
O	0.10591281817399101	63.5624328985868	85.79052592363497
O	1.6336461013304024	66.96331541676952	84.37794589634031
O	1.0347733011309792	65.90363758366769	85.21464868071847
O	1.032239979015493	64.1042262843016	86.58462037496425
O	1.5176663676187814	71.43083378520217	77.80724359188392
O	1.7932255315472985	70.30004753759326	80.48380021254111
O	1.1602311110586505	70.088404418789	82.04740907776296
O	-0.8116981947753634	62.08683404142069	86.36075694946508
