92

O	4.360035534848728	-0.479410426763637	-4.111751500127273
O	3.045268724848728	-0.0708457217636369	-4.205176410127272
O	1.9267477248487277	-0.552363986763637	-3.5836807801272723
O	-0.3073943931512722	0.591464341236363	-0.7845063591272724
O	0.8501033848487278	0.25088208023636305	-3.7955797301272725
O	-0.21281579115127214	-1.586927016763637	2.1416654698727275
O	-0.31326962515127216	0.18173296323636312	-2.994016000127272
O	1.791907514848728	-0.373533166763637	2.8108784598727277
O	1.2817776748487277	-1.691820596763637	-3.4250980301272724
O	-1.982283665151272	-2.127304516763637	0.19567872487272764
O	0.16488992584872786	-1.8702811167636368	-2.5813261401272722
O	-3.971824895151272	-1.604530126763637	-0.3993316441272724
O	-0.7499142731512722	-0.966011516763637	-2.2693880701272726
O	-5.146373475151272	-0.952573826763637	1.9133130898727275
O	-0.8015895338512722	-0.5597023367636369	-0.9240863741272725
O	-4.0007062851512725	-3.9719771067636374	1.0898425898727275
O	-1.2132698991512723	-1.035023936763637	0.18891051187272756
O	-7.125350345151272	-2.2382865967636367	1.2004985898727276
O	-0.1646488691512722	-1.013995046763637	1.0027411098727277
O	3.5699664648487284	2.172347423236363	0.09324359787272762
O	0.41562254484872785	0.2860444952363631	1.1644267898727274
O	0.6608807448487277	0.7327124275363631	-0.059054309127272386
O	1.330645134848728	0.6836253572363631	2.0554407698727277
O	2.2866183948487278	1.695891350236363	1.8677209898727276
O	2.3313214748487274	2.042653183236363	0.5889471998727277
O	1.4330306648487279	1.7901415532363631	-0.34117434012727244
O	2.0014021148487275	1.532314768236363	-1.6438501801272722
O	3.0925092948487274	0.5503354372363631	-1.1564948431272724
O	2.512968364848728	-0.3405026167636369	-0.4483492481272724
O	3.1842658648487276	-0.898449276763637	0.6555525798727276
O	1.982609154848728	-1.635297276763637	-0.12732284512727238
O	-3.1814991951512726	-1.7135669867636367	0.6821226598727276
O	-4.006821465151273	-1.8234574267636368	1.859105239872728
O	-4.860956925151272	-3.101370216763637	1.8242906298727277
O	-5.949078625151272	-2.8252468067636367	0.7974982598727277
O	-5.184331745151272	-2.240232356763637	-0.2743785021272724
O	-4.830935125151272	-3.3801922467636367	-1.2520780781272725
O	10.618417384848728	-5.861037926763636	4.170066559872727
O	8.448850004848728	-2.9731838367636367	5.195900649872727
O	7.081098024848728	-3.638247166763637	8.651693909872728
O	5.804823264848728	6.828572853236363	11.291537029872726
O	4.816752164848728	-9.782830276763637	7.587473979872728
O	1.3678889248487278	-11.327193876763637	7.483202309872727
O	-0.9363718801512722	-8.638061746763638	6.088552899872727
O	-4.648262585151272	-8.213379276763638	5.436022409872727
O	-6.774096065151272	-6.8697159567636366	2.6134570298727278
O	-9.306101085151273	-4.259805696763637	3.8375980198727278
O	-3.541879615151272	1.583971543236363	12.636848029872727
O	-5.903280155151272	-1.194880756763637	11.577863029872727
O	-7.137578475151272	0.017921601236363105	8.184268019872727
O	-10.426896665151272	-1.7298901167636371	8.791861579872727
O	-11.041488715151273	0.5302596382363631	11.758610129872727
O	-12.551142015151273	2.688176573236363	7.084290099872727
O	0.7913220748487277	6.002488193236363	5.612778749872727
O	3.090498704848728	9.045040173236362	5.554237089872728
O	5.313546934848728	7.360266883236363	2.9528912298727277
O	2.473798894848728	7.966829863236363	0.3576314278727276
O	3.110305734848728	11.664303923236362	0.8953420298727276
O	7.962455474848728	7.059849593236363	-2.0698994901272725
O	11.657052884848728	3.112400843236363	-2.781535670127272
O	9.364967084848727	2.4098450832363634	0.16327818987272757
O	6.650061494848728	1.297588397236363	-2.2511240601272724
O	8.708117394848728	-1.4367189267636369	-3.409916910127272
O	9.417767484848728	-2.562429836763637	0.14908741587272756
O	5.812608114848728	-2.986095706763637	0.6850651498727277
O	5.444871184848728	-4.858188446763636	-2.5193385601272724
O	8.175934414848728	-7.160751776763638	-1.5046692381272724
O	6.404918304848728	-7.959554656763638	1.754594969872728
O	3.1459400648487277	-8.656552026763638	-0.035368195127272406
O	3.436551004848728	-13.252715676763637	1.6994879298727277
O	-4.697999715151272	-12.272630976763637	-4.9468322201272725
O	-3.074527725151272	-9.986358576763637	-7.506954260127273
O	-2.1251129451512725	-7.774667456763638	-4.484028830127272
O	0.1423050118487278	-10.521178676763638	-3.1202618201272725
O	0.32799499484872774	-3.4371232067636366	-11.651901370127273
O	1.6755179848487278	-1.564058296763637	-8.737859020127273
O	1.2428757248487277	1.932355803236363	-10.321308590127273
O	-2.3999646751512724	1.159673324236363	-11.088942270127273
O	-3.0205583151512725	-0.0466931427636369	-7.501652170127273
O	-3.464349395151272	5.176525123236363	-7.653147550127272
O	-6.375892465151272	3.0239477432363633	-6.4243912701272725
O	-5.133939645151272	2.9363316532363632	-2.8136906101272725
O	-4.421185375151272	6.7568466132363625	-2.8918575001272724
O	-7.858883925151272	7.416053323236364	-4.205110360127272
O	-9.767980875151272	5.080081013236363	-1.9196468701272722
O	-7.738980555151272	5.471384663236362	1.2603063098727274
O	-5.276154465151272	8.362920753236363	1.4145473998727276
O	-6.408962495151272	11.539294423236363	-0.32754914412727243
O	0.028925166848727812	12.745928823236362	-1.8439822301272724
O	-0.7956771458312721	10.100072203236362	-7.604569750127273
O	1.9305473448487278	6.6383084532363625	-10.274230250127273
O	0.38055372484872785	3.056704943236363	-14.998725370127273
