79

O	2.0224705478163263	-4.238825152253061	0.5766023435510199
O	1.3845767878163264	0.001459634746939109	-4.353543645448981
O	-5.699868542183674	6.256028007746939	4.55810306455102
O	-2.210696344183674	0.10559824674693918	3.06515146455102
O	-0.9576866791836738	-0.423818552253061	2.9336533245510195
O	-2.0903698781836737	0.7423791141469391	0.8556601295510199
O	1.1089551378163263	-3.9910500222530607	1.73707285455102
O	0.6215579278163261	0.6284637337469392	-3.24401337544898
O	1.3054053378163264	-2.575045682253061	2.03853803455102
O	-4.654540342183674	4.599875587746939	3.1114727845510197
O	-4.928325852183674	4.090862387746939	5.3347202245510195
O	-3.5116694221836737	3.636470367746939	3.2018501345510195
O	-4.905679472183674	2.725275067746939	4.77743175455102
O	-2.8004913121836736	0.7080572718469391	2.00575170455102
O	-0.3957062021836737	-0.7754093922530608	1.73669766455102
O	0.6251962178163262	-0.3728128222530608	-2.1607821354489802
O	0.6810872878163261	-1.6915868622530605	-2.49032618544898
O	-1.2863908121836738	-0.3916159822530608	0.7398271015510198
O	-0.7439022031836738	-0.8272837822530609	-0.5225174784489801
O	0.22899444781632616	0.02911332774693909	-0.9556437754489802
O	-0.3010826121836738	-2.121018182253061	-0.4708540744489801
O	0.2973238078163263	-3.765822052253061	-1.74472572544898
O	-5.296395642183674	0.41939037674693913	3.04636718455102
O	-4.9682578221836735	2.133604337746939	1.5094655245510198
O	0.712954027816326	-1.4962639022530606	1.51045434455102
O	0.30081437781632614	-2.5474560322530606	-1.51760957544898
O	-4.788012182183674	5.173606647746939	4.4234382345510195
O	-3.947272032183674	2.4548446277469393	3.80130488455102
O	-4.280533542183674	1.3657767237469391	2.54575978455102
O	0.5923778078163262	-2.288772392253061	-3.66672872544898
O	8.991640017816326	-0.9917015822530609	-4.82095710544898
O	10.859539117816325	6.210452207746939	-1.84901321544898
O	9.121546817816325	9.120122187746938	-0.1559351014489801
O	5.420393117816326	8.252851067746938	-0.32116800144898006
O	2.1547763078163262	9.89171679774694	0.6926641545510199
O	-0.9377461271836738	8.760845497746939	2.41681366455102
O	-4.271758702183673	9.457682487746938	0.6162308035510199
O	4.1589680678163266	13.353720327746938	-9.992083365448979
O	-1.0914768811836737	8.453114997746939	-11.096595565448979
O	-1.5102287891836739	10.69902959774694	-8.03939774544898
O	-4.021926352183674	8.758044837746938	-5.94267762544898
O	-5.388829232183674	11.970785527746939	-4.482338075448981
O	-2.012645412183674	-0.7780323822530609	-9.304427375448979
O	-1.9236808381836739	-3.9679545222530606	-11.38695066544898
O	0.09774608781632632	-5.737022772253061	-8.642370255448979
O	-3.044198632183674	-5.978532352253061	-6.498157745448981
O	-4.571996882183674	-8.064505932253061	-9.33946222544898
O	5.295849517816325	-7.2969864122530605	-4.47379573544898
O	3.241896477816326	-6.563412422253061	-1.4182387854489802
O	6.246009597816327	-7.144661282253061	0.7766585685510199
O	8.171669897816326	-4.726929422253061	-1.3846451654489802
O	5.606341417816326	-2.0422055422530607	-0.8083898154489801
O	5.732641457816326	-2.6991402222530607	2.99152591455102
O	9.457140317816325	-2.5460995822530608	2.9686357745510197
O	9.426434017816327	0.8369985481469391	1.2618883585510199
O	6.860939847816326	2.181767037746939	3.72584376455102
O	8.689252917816326	0.8356916857469392	6.808345874551019
O	11.961213617816325	2.142471547746939	5.4249902745510195
O	10.290171617816325	5.525485987746939	5.08647181455102
O	1.9453634478163262	5.880687167746939	11.38616783455102
O	1.2092490978163264	2.099242137746939	11.62353993455102
O	1.2248785478163264	2.242624207746939	7.780785684551019
O	4.952375947816327	3.1762089077469393	7.87354723455102
O	-1.3377308681836737	-5.812793702253061	10.160379554551021
O	-0.5834584521836739	-5.856860472253061	6.40624605455102
O	-3.299109042183674	-8.39858189225306	5.58519340455102
O	-5.8647590621836745	-6.261299002253061	7.36413797455102
O	-4.676891852183674	-3.2323159022530605	5.52344923455102
O	-7.903335412183674	-5.775752552253061	2.43254942455102
O	-8.691450402183674	-2.2083548322530606	3.37642346455102
O	-6.770816692183674	-0.787426542253061	0.4540225695510199
O	-8.383865562183674	-3.1999893822530607	-1.9369459854489801
O	-11.867286482183674	-2.3256547222530606	-0.6675736054489801
O	-11.486936882183674	1.4205831097469392	-0.6564718384489802
O	-9.295750772183673	1.903766917746939	-3.70833382544898
O	-8.993558152183674	-1.062237052253061	-6.09449665544898
O	-8.270764042183673	-8.480846662253061	-7.29716010544898
O	-8.907436942183674	-9.99857047225306	-1.08575008544898
O	-6.008398812183675	-11.236025172253061	8.66682433455102
