24

O	0.6896125443413763	65.03378265846749	77.88774954784176
O	-0.5667233417925486	66.06902204161621	78.23793908592619
O	-0.032839325734192126	64.04772149510275	76.90327761578646
O	1.649364442502403	66.2425020374523	77.42623311457399
O	0.026855601492657755	63.4897720605066	79.67167526822988
O	0.9767528184075673	64.33624940176385	79.25095248553198
O	-1.152361190991566	63.97945810013037	78.83331174146738
O	-1.786837333682989	64.7528106739367	79.81931944024966
O	-1.6701004993922188	62.60938295307444	78.65476820880036
O	-2.047724570165717	62.11008984763476	77.44768001606518
O	-2.7119438538508405	63.00780638849421	79.64019795580947
O	-3.40273900321886	63.69803813975868	78.60089723331347
O	-2.263857701474265	63.866473742495344	80.74513956870811
O	-1.1319946560174106	62.408516578048705	84.01601359805717
O	-1.7330409506373845	63.59500704062478	84.48485455839608
O	-0.9795471371117355	64.65136927685033	84.92369200111956
O	-2.5193812392749315	64.03537960202576	83.31252276791119
O	-1.4179440999784774	64.43519123109678	82.7785121219519
O	-0.02894766089394274	63.699210584937305	83.15137723468534
O	-0.46858481914440375	62.390957236839476	82.76910111922473
O	-1.0937675275019307	61.77674044843266	81.6228306982499
O	0.5599972666198623	64.84393076386222	82.873622452446
O	-0.5102460739991228	65.18181395225668	81.93245867514943
O	-1.191866974274556	63.941271797556894	81.54110929437249
