80

O	-4.377514803656	1.3051544007200004	0.5079087598800006
O	2.2325975463440004	3.23817611072	-0.9682439821199995
O	6.337726366344	-6.686347359279999	0.2911195198800006
O	0.020924546344000428	-3.59597339928	1.0242293998800007
O	-0.9485551591559996	-2.9490204692799997	0.2575845350800006
O	1.1017589663440002	-1.5872923492799997	1.1710590838800006
O	-4.408927533656	-0.12783209127999973	0.9355175548800005
O	1.1945111163440005	2.25599654072	-1.4436917321199993
O	-3.5812456336559997	-0.8251770842799997	-0.053210800119999374
O	3.9632403063440007	-7.077696189279999	0.6330421858800006
O	4.670753936344	-4.90982407928	0.4857319098800006
O	3.034635836344	-6.481730929279999	1.6063960478800006
O	3.217143716344	-4.846161509279999	0.002603221880000617
O	1.1545862163440002	-2.92080357928	1.3076554078800007
O	-1.2483312316559996	-1.6028646292799997	0.43337163088000064
O	0.22511928634400036	1.9171650807200002	-0.4799722601199994
O	-0.33318423565599964	2.69596686072	0.4478468638800006
O	-0.21650016365599967	-1.0846219992799997	1.2120130578800006
O	-0.21630139065599963	0.3562680857200003	1.0556015728800006
O	0.17933206634400034	0.6245502647200003	-0.24097282011999935
O	-1.3788522686559996	0.9656008677200003	1.3778762678800005
O	-2.139319093656	3.04739394072	1.7046503878800006
O	3.6229109763440004	-3.44147773928	2.2399389878800005
O	1.8906266463440002	-4.48083458928	3.385486387880001
O	-2.2361678736559996	-0.8768992792799997	-0.14107514311999939
O	-1.4152263426559997	2.25050725072	1.1111019658800005
O	4.998502296344	-6.281629959279999	0.08077096988000063
O	2.4430037563440004	-5.332788259279999	1.0704093488800006
O	2.2695648963440003	-3.96532210928	2.054772237880001
O	-0.028856523655999666	4.701178140720001	0.18850775149500062
O	-3.8657689736559995	7.45304122072	-6.283173792119999
O	-0.47758768865599965	3.5031703207200002	-12.387197692119999
O	1.9877901463440004	0.6840277707200002	-12.94521859212
O	3.3540563863440003	-0.1092184192799997	-9.486710662119998
O	5.935803826344	-2.45814265928	-8.01052790212
O	6.050703116344001	-4.736713539279999	-5.071636132119999
O	9.057371266344001	-4.284165209279999	-2.6983623921199995
O	11.641116266344	7.082606050720001	-10.582633392119998
O	11.108134766344	7.683612890720001	-3.3401432021199993
O	11.853090866344	4.192785280720001	-4.692474212119999
O	10.916408966344001	1.9624353607200002	-1.7585570221199993
O	13.520048466344	-0.5897365412799997	-2.7960500321199993
O	3.992767366344	8.05782472072	2.8461894978800006
O	2.2948536963440005	10.77112039072	4.906186777880001
O	-1.2044694366559996	9.38303393072	4.127693407880001
O	-0.5026774726559996	6.42440235072	6.442793977880001
O	-0.19194243265599964	9.06309647072	9.23845281788
O	-6.779318723656	7.51768119072	0.4990602038800006
O	-6.156564393656	3.9103749907200003	1.3365014578800005
O	-9.112401973656	2.96353309072	-0.8959006621199994
O	-7.529730363655999	4.95340002072	-3.6765011521199993
O	-4.357103603656	2.96283311072	-3.3776306921199994
O	-6.371968883656	-0.3342450832799997	-3.4403165421199993
O	-8.219676723656	0.8189418507200004	-6.482452502119999
O	-4.993664263655999	1.5302979507200003	-8.338507372119999
O	-3.5585117636559995	-1.8590336192799997	-7.373523152119999
O	-6.716467293656	-3.79380380928	-8.30705875212
O	-6.932596913656	-1.8345166492799996	-11.541266092119999
O	-3.3563015836559997	-2.87591840928	-12.231199492119998
O	-1.0588748248559996	-11.35834430928	-6.500044872119999
O	-3.6573451736559996	-10.867639709279999	-3.6792964721199994
O	-2.1109379936559995	-7.389232509279999	-3.4036200821199993
O	-3.3921882536559997	-6.52044115928	-6.906257682119999
O	-7.7408797536559995	-8.36541292928	3.2669144078800008
O	-6.7360732636559995	-4.673333169279999	3.068312517880001
O	-6.893646843656	-4.11303851928	6.837486897880001
O	-4.633139923656	-7.086732799279999	7.411990517880001
O	-2.2149947636559997	-5.85449706928	4.842943847880001
O	-1.2700242736559997	-3.32469003928	9.242108527880001
O	1.4832266963440004	-5.325818219279999	7.614241107880001
O	2.677313096344	-2.37861292928	5.577524207880001
O	2.6401022563440004	-0.10244036527999972	8.52742885788
O	4.651951996344001	-2.5942141792799998	10.602657607880001
O	7.278947126344001	-3.42875566928	8.029345517880001
O	7.641065326344	-0.06905259127999971	6.2967652678800015
O	6.185928986344001	2.9602883607200003	8.116122587880001
O	6.479195416344	2.77565025072	11.919029707880002
O	0.6654949863440003	6.12151024072	12.16060250788
O	-2.5752238636559994	0.6623299587200002	12.904822907880002
O	-8.805289603656	-7.11024766928	10.39108540788
