84

O	1.6206532191400003	-5.44688221502	1.2604284851800007
O	2.58151254914	-5.3081849950199995	0.14560837218000067
O	2.8540533791400002	-7.13805801502	2.127556345180001
O	2.5902951291400003	-5.80838864502	2.3796656751800005
O	0.21746728014000033	-0.40676234501999997	1.8820076651800006
O	-3.4416382608599996	3.45622231498	-1.1242866728199994
O	3.8065470191400004	-7.0801850250200005	1.0869387551800007
O	2.44792155914	-0.7332634950199999	0.7038595451800007
O	-0.6403884738599996	-1.4505817250199997	0.14278945818000066
O	2.8895810391400003	-6.67562310502	-0.01336700881999936
O	-1.3157108358599998	2.72495030498	-1.2438559938199993
O	-2.05587305086	0.4526228359800002	1.0234131251800007
O	2.02093265914	0.5284791439800002	0.9650968051800006
O	2.1226294391400002	2.86747169498	0.6747315651800007
O	1.0898637791400003	0.5334097819800001	1.8964239851800007
O	1.7610441791400002	-3.04981750502	0.3125113561800007
O	0.26803112414000024	-1.2624466550199998	0.9254475551800005
O	1.5015943591400003	-1.6852069250199997	0.5169828401800006
O	0.10574413414000028	3.60521773498	0.3850611371800007
O	-0.11663500785999972	2.99354424498	-0.8106284498199994
O	-2.1237931708599995	3.6892058749800003	-0.8246530598199994
O	-2.07882440086	3.85973646498	0.5060280281800007
O	-0.8109381628599996	4.44857457498	0.7979723751800007
O	2.58146434914	1.64785653798	0.5003535461800006
O	0.9316063591400001	2.82919120498	1.2276178851800006
O	0.5103885311400003	1.7552048079800002	1.8812374351800005
O	-3.83831555086	2.15955705498	-1.3660413548199994
O	-0.9573707018599997	-0.2988569350199999	2.6237118251800005
O	-1.9739058208599998	-0.8678778550199999	1.5885343551800006
O	-3.1016177508599996	0.9919468973800001	1.7275548251800008
O	-4.52203298086	0.6339963479800002	1.3340522651800006
O	-5.2375298708599995	1.9787614599800003	1.4337085151800006
O	2.7506004391400003	-3.39763449502	1.3654994251800006
O	3.58116838914	-4.44070289502	0.6832062751800005
O	4.399172279140001	1.4139527999800001	13.491177095180001
O	4.861133369140001	-0.17118997501999988	10.062490995180001
O	6.374018069140001	-3.2377272550200002	8.44066855518
O	5.3336387291400005	-5.6333552750199996	5.78067991518
O	7.976566689140001	-6.35218033502	3.102595735180001
O	14.81043833914	4.69386939498	8.865690265180001
O	13.10568033914	4.66623516498	1.7269950351800007
O	13.21760193914	1.23196979398	3.4511752951800005
O	11.16165843914	-0.9600428750200001	1.0668084651800007
O	13.15201533914	-3.96645472502	2.0561835251800007
O	13.41769673914	-4.77491271502	-3.1176031448199995
O	5.22140547914	6.24280634498	-3.3798679848199993
O	3.8652503791400004	9.00889988498	-5.41650870482
O	0.3643228521400003	8.80366700498	-4.035600154819999
O	-0.20796815785999972	5.62040824498	-6.041460944819999
O	0.33116107714000026	7.73495666498	-9.18628293482
O	-5.31419942086	8.606431754980001	-4.79719233482
O	-8.34524175086	9.73473008498	-0.41958931481999934
O	-4.70680291086	9.15894358498	0.5383275881800007
O	-5.347253220859999	5.5318993049800005	0.26301601418000065
O	-7.756945590859999	5.56411394498	2.9861256051800007
O	-5.30606729086	7.36846380498	5.21688275518
O	-2.83847720086	4.59869977498	4.771507055180001
O	-5.5149623408599995	2.02755810998	5.606663325180001
O	-6.432447970859999	3.8611993149800004	8.698690365180001
O	-2.8583732408599998	3.81019972498	9.936299595180001
O	-2.53674983086	0.08242746498000009	9.334143135180001
O	-1.7225614708599997	-0.5500681050199998	14.142706395180001
O	-2.5386169908599996	-9.78357866502	9.195982675180002
O	-5.318324680859999	-8.90508915502	6.757519695180001
O	-3.03855470086	-6.03152280502	5.782292565180001
O	-3.5210416908599997	-4.5150063850199995	9.292532775180002
O	-9.833007330860001	-6.29712128502	0.4574836981800007
O	-7.974161190859999	-2.95386028502	-0.045732148819999374
O	-8.84073560086	-2.9346953550199997	-3.8120500248199995
O	-7.325303400859999	-6.38422426502	-4.181267914819999
O	-4.228846110859999	-5.17751140502	-2.1650446748199994
O	-3.6651048708599996	-3.9312612950199997	-7.125871484819999
O	-1.1816658828599997	-6.27751534502	-5.483800844819999
O	0.9921408891400003	-3.5463788550199995	-4.275590804819999
O	0.9098088991400002	-1.6593535850199999	-7.5597715448199985
O	1.8563052591400004	-4.78905937502	-9.367954244819998
O	4.60656198914	-5.92475755502	-7.05605348482
O	6.1238566391400004	-2.6588672350199998	-6.06272357482
O	5.127651899140001	0.33570533698000016	-8.141097754819999
O	4.649089579140001	-0.3466648850199998	-11.828206304819998
O	-0.09981194985999972	4.35262174498	-11.79439750482
O	-4.657517770859999	-0.21514415501999995	-11.17353240482
O	-8.78443318086	-0.7012377150199998	-8.05275772482
O	-11.96199946086	-5.77097838502	-6.50468016482
