33

O	4.8381274271251655	65.98435993794521	86.8294937357504
O	4.229907267402984	65.2515216706309	85.70921892114208
O	3.9877270867050263	65.79851583672992	84.48332349751892
O	3.374334895288037	66.91139939855078	84.0615472106658
O	3.934224928945376	68.19075717080457	83.81370187146638
O	3.3681716351606505	69.210797551086	83.01685024980978
O	2.182188864111662	69.02987734629234	82.43093457785957
O	1.4916812252490343	68.0005292814583	82.92205831251998
O	2.1028446586383582	67.28622260288333	83.96927460011369
O	1.672887324841132	70.3955931985823	81.56836171034011
O	2.6547904778934894	71.28540820717957	80.90638281081986
O	0.8221875234013436	71.39935896855954	82.15028609950645
O	0.7264685453323043	69.60336935843152	80.42742128413857
O	1.6241714727466916	69.41394644543273	79.38062880611334
O	2.063506918119484	70.72669680566514	78.83439754860788
O	1.009315966296164	71.68148889119736	78.70912940000474
O	-0.1946541788249676	70.84228309262964	78.64046188476732
O	-0.3595123864448342	70.3588106036517	80.04221020160551
O	0.9881861137758081	72.45264395643213	77.50190993885944
O	1.3874798187395707	66.62460181648447	85.04435204220675
O	1.6678737946594784	65.93787555125623	86.15553582760081
O	1.0572341031195285	64.78489168336931	86.3231722818099
O	0.6404229733789579	64.10781449763826	85.20844447934314
O	0.023882217150040574	64.90987389311783	84.142465330176
O	0.3837218859086722	66.16098076314063	84.30130970338162
O	1.116520559555989	64.09108308815344	87.30865130547768
O	1.656031704738489	63.711053255935994	84.3357758090851
O	0.6844662519158357	63.11401885640932	83.51086476541377
O	-0.021695975422435065	64.25123515862022	82.99308566034428
O	2.056892282818259	62.299056861965674	84.91578950166746
O	-0.3520517159103045	64.9839367682981	81.66926505236768
O	0.8094623751238341	65.40617591490845	80.8282002316219
O	1.956488519905618	64.65322875687121	81.59395365988695
