78

O	-4.172077710734694	2.0774590635693877	-1.226570338061224
O	-0.6608331237346936	-2.9588303464306125	-2.958189328061224
O	7.413956849265307	-0.010108808430612293	6.210406701938775
O	1.2737002592653064	1.7268403035693876	3.105064981938776
O	0.6192481692653065	2.2444588135693877	2.019494801938776
O	0.9869100192653064	-0.3118204214306123	2.1692689119387762
O	-2.1982011307346934	-1.5620554864306122	-1.278047828061224
O	-3.2375962507346934	2.7187727235693875	-0.18833993406122396
O	0.10598467226530639	-2.2109442564306123	-1.9187383180612239
O	-1.9231529707346935	2.1872004635693876	-0.5917297880612239
O	5.464106499265307	-0.2874882544306123	4.784654261938775
O	5.746038589265306	1.7173161735693876	5.864907961938775
O	4.6831726092653065	0.6832615555693877	3.890702171938776
O	4.272732219265307	1.5796183335693876	5.959873071938776
O	-0.9371218757346935	-1.1016346264306125	-1.4953988980612238
O	1.5289282592653066	0.4043162689693877	3.174820441938776
O	-0.3173799627346936	1.5425061135693876	1.239824446938776
O	-0.20574866073469356	0.2420093835693877	1.658298541938776
O	-0.9696523847346936	-0.5502577964306123	0.6834484019387761
O	-2.9291339507346934	-0.9109887964306124	-0.38129847806122397
O	-0.30000647073469355	-0.5174980114306122	-0.507264768061224
O	-2.2768994907346936	-0.30722202343061233	0.612035005938776
O	-4.133808050734693	-0.7545142864306124	-0.4172592100612239
O	1.6956214492653063	0.5269129757693877	5.898313931938776
O	2.9845147292653063	-1.0973776564306124	4.893448351938776
O	-0.8151170910246935	2.0781000035693875	0.12290577293877603
O	6.479387289265307	0.6144232955693877	5.339727031938776
O	3.733178629265306	1.2830289235693877	4.704045721938776
O	2.3957981092653062	0.2093381845693877	4.632326191938776
O	-2.2653493007346936	-1.0284324764306123	-10.003793108061224
O	5.335302879265306	1.1577386005693877	-11.415626608061224
O	8.552671719265305	1.6357918535693878	-9.475181018061225
O	7.781255549265306	0.34759974366938773	-5.976536718061224
O	9.685699169265305	-0.10796540343061234	-2.7211714380612237
O	9.010341009265307	0.6381626915693877	0.886065952938776
O	9.486172969265308	-2.3745713064306124	3.269366781938776
O	11.033234369265305	-9.904617546430613	-8.514667348061224
O	6.1023182592653065	-11.885724746430611	-3.5049503680612237
O	8.916600669265307	-9.604533546430613	-2.299199658061224
O	7.504176889265307	-8.225255996430612	0.9556073049387761
O	10.982018369265308	-7.896264406430612	2.401413931938776
O	-2.5724153607346936	-9.003698786430611	-1.1566275580612237
O	-6.082651230734694	-10.357047346430612	-1.6385732280612237
O	-7.407207440734694	-6.863223376430612	-2.445949748061224
O	-7.081647500734694	-5.9347371864306115	1.245225031938776
O	-9.648909730734694	-8.758806566430613	1.9283042019387762
O	-8.281606180734695	-0.9640142964306123	-5.805255748061224
O	-6.883439160734693	1.0125707905693877	-2.9341476980612238
O	-7.178969120734694	4.179679153569388	-4.963238718061224
O	-5.287105130734694	2.4812478335693875	-7.748783418061224
O	-2.5052031307346936	1.7378716435693877	-5.413943488061224
O	-2.395772490734694	5.312789583569388	-4.119795828061224
O	-2.327847220734694	6.558855273569388	-7.6379967880612245
O	0.6763806092653064	4.413276843569387	-8.507136128061225
O	2.5267032892653063	5.558128073569388	-5.378517808061225
O	1.7236282492653063	9.266731453569388	-5.956104788061224
O	2.658474609265306	8.911886243569388	-9.601231708061224
O	5.965845399265306	7.469794693569388	-8.466416958061224
O	7.701118989265306	10.361197273569388	1.475363666938776
O	4.023229169265306	11.006468853569388	2.5216609119387763
O	3.463074379265306	7.460852433569388	1.2000098479387762
O	4.325911039265306	8.596219173569388	-2.329214618061224
O	-3.9710776207346936	10.049685113569389	5.085563051938776
O	-4.723463250734694	6.849986743569388	3.1269817019387762
O	-7.246729080734694	5.531959383569388	5.652990281938775
O	-4.785582020734694	6.003519493569388	8.469160971938777
O	-2.1144139907346933	4.240323373569388	6.522487891938776
O	-5.103286250734693	0.6645211495693877	8.805010351938776
O	-1.3862873747346935	0.6887039275693877	9.449195171938776
O	-0.5939583507346936	-1.6190431064306123	6.625630341938776
O	-3.367279690734694	-4.008890686430612	7.574204201938776
O	-2.1591790707346936	-4.134201926430612	11.164917891938776
O	1.5048487892653064	-4.641233546430612	10.505558951938776
O	1.3611798192653066	-6.784934766430612	7.359937541938776
O	-2.0071694707346937	-8.424228496430612	6.552069701938776
O	-3.974372600734694	-9.479205396430611	9.629819131938776
O	-9.545413340734694	-8.084222086430612	6.125968691938776
O	-9.423851080734693	7.949291603569388	9.481546981938775
