73

O	0.10766346152631567	-1.480785542350877	1.9624575102526316
O	-0.022508761473684302	-0.27805857935087686	2.5020900102526316
O	-0.9516139844736844	0.0316737036491232	3.3445573002526316
O	0.1313159555263157	0.8963746976491231	1.8275055502526316
O	0.3111874505263157	0.9238326206491232	0.48511969725263143
O	0.6790606875263158	-0.35628423435087686	0.038444410352631436
O	0.06562743952631567	-1.4595789523508769	0.5979133862526315
O	0.05646625652631565	-2.5379199723508767	0.01965689055263143
O	1.7461499375263156	-0.07189977635087685	-0.6687940737473685
O	2.056252627526316	1.2498691146491232	-0.6614192477473686
O	0.8967640375263156	1.8599886776491232	-0.3138889097473686
O	-0.7039845372736844	-2.530510332350877	2.5433619002526315
O	0.0367916945263157	2.1380731676491234	2.5934532502526317
O	0.3999407475263156	3.235831507649123	1.6517311002526316
O	0.9616569275263157	4.369612157649123	2.4425102302526316
O	-0.9627566684736844	3.7303263276491228	1.1742769702526314
O	12.321116447526316	-2.1803930923508767	2.1181765502526315
O	9.702550347526316	-0.48583952835087685	0.027657907852631433
O	10.441998247526316	3.239485327649123	-0.18031520774736856
O	7.540098847526316	2.005253567649123	-10.749481609747368
O	5.457167977526316	5.059720627649123	-9.912781629747368
O	6.718076777526316	10.549618467649124	-9.736196299747368
O	11.180072047526316	4.286255447649123	6.334689340252631
O	9.213683247526316	6.307799567649123	8.867777510252632
O	5.5757244775263155	6.062656837649123	7.685579580252631
O	2.188996157526316	7.428435717649124	8.803604710252632
O	-1.3012454034736844	5.931871037649123	9.195906890252632
O	-4.071846512473685	7.941989187649123	7.492079190252632
O	4.733802447526315	15.540183967649124	-4.618906939747369
O	1.3188133075263155	11.851751267649123	-2.6139199597473683
O	0.38994268752631556	12.512274767649123	1.0248985932526316
O	-2.5717788024736845	10.193902907649123	1.5369567202526315
O	-5.769268362473684	12.434851567649124	-1.0271499097473684
O	-8.527550852473684	11.682586767649124	1.4791138202526315
O	-1.6913433924736845	9.028739357649123	-5.792648559747368
O	-3.018661952473684	6.539005557649124	-8.374806379747369
O	0.46748030752631575	5.948440087649123	-9.792943289747368
O	-0.3699808904736843	2.9699301776491236	-5.341931139747368
O	0.09272345752631561	1.2012547646491232	-8.779935299747368
O	1.5199386675263158	-1.923515842350877	-7.019005129747368
O	-1.9498584524736842	-2.7200397923508772	-5.662739499747368
O	-2.9810654624736843	-3.066141382350877	-9.356147259747368
O	1.5589772875263157	-7.494206012350877	-6.015714599747368
O	2.229232497526316	-10.136587532350877	-3.4068204697473683
O	5.955558107526316	-9.526691332350877	-3.6880755497473685
O	5.7710780475263155	-5.801654002350877	-3.2904871997473686
O	3.1424300175263156	-6.2452612323508765	-0.5699056327473686
O	5.6379446175263155	-8.131453662350877	1.4803141802526316
O	8.156752727526316	-5.323250642350876	1.0512138982526316
O	5.591440687526315	-2.9400033423508765	2.4099974502526313
O	4.878665497526316	-5.184833212350877	5.325170620252631
O	8.595389147526316	-5.505235592350877	6.081910110252632
O	9.031524847526315	-1.7305008123508767	6.193240590252632
O	6.075142347526316	-1.3270905823508767	8.518065830252631
O	-0.33302422247368435	-2.319788682350877	10.93197609025263
O	3.2526099475263157	-2.017766112350877	12.156192190252632
O	-3.5384062424736844	-10.076771932350876	9.139815140252631
O	-2.039344592473684	-8.725758472350877	5.965480220252632
O	-4.674136812473685	-10.246149032350877	3.6946400902526317
O	-7.422142972473684	-8.736814962350877	5.846693030252632
O	-5.723771182473684	-5.349948392350877	5.803382800252631
O	-8.502462902473685	-5.936460452350876	1.4686378702526315
O	-9.178678062473685	-3.032106772350877	3.8289581102526316
O	-6.593552532473685	-0.8278672423508768	2.1253069802526317
O	-8.032471762473685	-1.652217802350877	-1.2674699197473684
O	-11.085712652473685	2.2251609476491234	1.6624019002526316
O	-8.447378732473684	3.7737517976491235	-0.5708866797473686
O	-7.764304042473684	2.186895457649123	-3.9635794797473682
O	-10.879114652473683	0.8883171906491232	-5.714537289747368
O	-6.998861582473684	-3.9189178923508763	-8.323680279747368
O	-10.145922932473685	-6.0721393423508765	-8.150280659747368
O	-8.810068012473684	-7.951625052350877	-3.7066511397473683
O	-6.316977252473684	-11.203102632350877	-0.6228409017473686
