85

O	5.334394432119403	0.22296726596417965	1.039676979104478
O	-2.141922587880597	-1.5601372280358206	-1.492700740895522
O	4.093895572119403	-0.3081195130358203	1.1462198391044778
O	-3.770336607880597	-2.7244029180358202	-0.6593534308955222
O	3.059554232119403	0.2895964239641797	0.49090766710447786
O	3.210844212119403	1.6170507339641795	0.36223528610447786
O	4.463417762119403	2.0671599619641796	-0.049122947895522184
O	5.524167622119403	1.2437695799641797	0.12489722610447784
O	1.740728522119403	-0.28925735703582034	0.4689615631044778
O	0.697320022119403	0.5820784612641796	0.31265814510447787
O	-0.638036890880597	0.22925542296417967	0.5886763531044779
O	-0.8524200708805969	-1.0903173880358206	0.7964506191044779
O	0.16314636411940298	-1.5576261780358203	1.6413204691044778
O	1.4732181821194028	-1.2348104780358202	1.4510805191044778
O	-2.2249098278805968	-1.5718097980358205	0.8215089391044778
O	-3.1817760878805967	-0.4776108580358204	1.1342456491044777
O	-2.571473397880597	-2.1233635280358203	-0.48885162389552217
O	2.543010002119403	-1.7207039280358205	2.111230849104478
O	-2.258095947880597	-12.30570157803582	-1.1102569828955222
O	-1.5764412078805972	-13.92989347803582	2.302561519104478
O	-3.676376687880597	-9.86079627803582	4.317382749104478
O	-5.063944537880597	-11.98974747803582	7.125137429104478
O	-7.458086007880597	-7.25023357803582	6.769445459104478
O	-5.406236637880597	-7.69881551803582	9.934272879104478
O	-16.214213117880597	0.4394589359641796	-1.674919560895522
O	-13.028044817880598	-1.3678078680358206	-0.6975950978955221
O	-10.952002717880598	1.7513518319641794	-0.7398937268955221
O	-12.019210717880597	2.07114546196418	-4.348418150895522
O	-11.296971817880598	-1.5881053780358205	-5.010047540895522
O	-7.910284177880597	-1.3004314980358203	-3.3971768008955223
O	-7.207937177880597	1.7390178219641799	-5.588322970895522
O	-8.281789757880597	0.30707516196417967	-8.961231950895522
O	-7.045469617880597	-3.2743320480358205	-8.910814920895522
O	-3.663103047880597	-2.3064817480358206	-7.421098590895522
O	-3.061257317880597	0.7466496043641797	-9.669168150895523
O	-3.902964897880597	-1.2536841980358204	-12.744645220895523
O	-0.838508552880597	-3.507896338035821	-12.595274720895523
O	1.3719431621194031	-0.5432701880358203	-13.595060720895521
O	7.002156352119403	1.9506131219641798	13.730169779104479
O	-0.980310446880597	12.81084792196418	0.1355987761044778
O	-3.692522567880597	12.70817872196418	2.7525148391044776
O	-1.236508444880597	12.08813672196418	5.579085179104478
O	0.739799232119403	9.61593598196418	3.4588032991044777
O	-2.352094537880597	7.57376441196418	2.6899491491044776
O	-4.364930807880597	7.89097440196418	5.871932429104478
O	-1.4593332178805971	8.01962602196418	8.357986589104478
O	1.6940392621194031	6.73109508196418	6.671686589104478
O	0.41364054211940304	3.7095899419641793	4.716747069104478
O	-2.187139697880597	3.1431068219641793	7.475977619104478
O	0.6219305021194029	2.4625246519641797	9.967794179104478
O	2.752936332119403	0.4814340689641796	7.523977159104478
O	-0.09579518688059696	-1.8134062980358205	6.616482999104478
O	-1.363901535880597	-2.5067136980358207	10.139070979104478
O	-4.791645437880597	-2.7780996480358207	8.468014419104477
O	-7.665685937880597	3.8431715219641793	4.587940489104478
O	-9.299346487880598	6.87696941196418	3.064035939104478
O	-7.895079717880597	9.61580350196418	0.9113855991044778
O	8.727799972119403	6.77690375196418	-11.307024020895522
O	10.389583982119403	1.2653109169641796	-7.271151620895522
O	12.436980082119403	-1.4912737980358206	-3.5038995108955224
O	12.232690982119403	1.6289588189641795	-1.3857144288955223
O	15.691027282119402	1.1905028479641797	0.1331325881044778
O	14.335767382119402	0.8948990789641796	3.652532199104478
O	2.877446342119403	-8.77427383803582	-9.931167350895523
O	12.827020182119401	-8.47430144803582	-1.2195601838955223
O	7.221622372119403	-5.02603632803582	8.855306929104477
O	7.883611972119403	-6.94674246803582	5.608975009104478
O	6.831513232119403	-9.88703537803582	3.4902115091044776
O	4.456282892119403	-10.75613917803582	0.6884790991044779
O	6.507946892119403	-9.50899027803582	-2.224451360895522
O	7.198070822119403	-6.11413297803582	-0.8016004138955222
O	3.561036912119403	-5.17854433803582	-0.26054288789552216
O	2.361802572119403	-6.57976071803582	-3.6337851608955223
O	5.064114442119403	-4.81906343803582	-5.683051420895522
O	5.170249762119403	-1.7815816680358205	-3.408397230895522
O	1.4613863121194028	-0.9841529680358204	-3.300185300895522
O	0.751868332119403	-0.4546410980358203	-7.062160760895522
O	3.6868963921194036	1.9298183019641795	-7.325893000895522
O	2.7618443621194033	3.8117254319641796	-4.152426450895522
O	-0.931021001880597	4.22431289196418	-4.997907180895522
O	-0.272516957880597	5.14690238196418	-8.619807600895522
O	2.252195562119403	7.72564526196418	-7.388675310895522
O	-0.283736417880597	9.16398012196418	-5.021495100895522
O	4.1731509521194035	7.10859414196418	13.269343779104478
O	4.274151792119403	4.60806166196418	16.096887179104478
