83

O	-1.9024213558257574	-1.1063083612757576	-1.268655093862121
O	1.4561503621742424	1.9435290087242423	-1.7349313838621212
O	-1.0722485964157575	-5.521362201275758	0.855161596137879
O	1.0375582621742427	3.9229857287242424	-2.4584292638621212
O	-0.8639122458257574	-4.564548681275758	1.793640426137879
O	-0.6763091788257575	-3.2998425312757576	1.3191389661378787
O	-0.7928432808257575	2.4816490287242425	-1.5319209498621211
O	0.5481946321742426	2.7000131687242424	-2.102676123862121
O	-1.0959898163257575	3.6254939087242426	-0.6232406457621211
O	-1.8350219648257575	0.2369695867242424	-1.6581852438621212
O	-1.0074974295257575	1.1525710107242424	-0.9738484128621211
O	-0.7054061018257575	0.6736452406242424	0.25722118013787887
O	-0.5743744718257575	-0.6827585412757575	0.5049569761378788
O	-1.0748966530257575	-1.6312074212757577	-0.3362283428621211
O	-1.3647886048257574	-2.9002434712757577	0.22552216713787887
O	-1.9376776048257573	-3.8424559012757573	-0.5398391924221211
O	-1.9550962438257575	-5.128130901275758	-0.11344817286212111
O	1.8951312921742425	3.0541053187242424	-11.917986333862121
O	-1.5016434188257575	3.0316412087242424	-13.715198633862121
O	-3.3844458678257574	5.068218128724243	-9.556820583862121
O	-5.838457257825757	7.033336828724242	-11.65359893386212
O	-5.376581517825757	8.972447198724243	-6.722586573862121
O	-8.772480947825757	7.4447481387242425	-7.468360613862122
O	3.8751519521742424	15.621236088724242	2.094922986137879
O	2.5259655621742425	12.798337488724242	-0.04109537186212109
O	2.0795121521742423	10.473821548724242	2.866301336137879
O	5.784805652174243	10.933827888724242	3.433385686137879
O	6.532027662174243	10.438996368724242	-0.2484304558621211
O	4.420984542174243	7.353156288724242	-0.3537947078621211
O	6.290503132174242	6.034594718724242	2.701064916137879
O	9.868518152174241	6.690676908724242	1.520458266137879
O	9.814153852174242	5.780815438724242	-2.160836443862121
O	7.783811552174243	2.603527788724242	-1.5631924438621212
O	9.746044052174241	1.4019182857242423	1.5074864561378791
O	13.018600052174241	1.9219486587242425	-0.28072558686212107
O	12.529358952174242	-0.8794008712757577	-2.811093323862121
O	13.021214252174241	-3.4610938312757575	-0.026999124862121082
O	-14.928452747825759	-4.9402454112757574	0.838716526137879
O	-0.8984879048257575	-0.16629538027575763	12.926782866137879
O	-3.0552182378257573	2.9260556087242424	12.962734166137878
O	-6.183858427825757	1.0022038837242424	12.003906766137879
O	-4.247046347825758	-1.0574614112757577	9.422615136137878
O	-2.9161026678257578	2.0572296687242426	7.736230766137879
O	-5.769030267825757	4.505110568724243	8.114853396137878
O	-8.665972537825757	2.0210353687242426	7.862849626137878
O	-7.409599677825757	-1.2387134012757577	6.352211036137879
O	-5.131934187825757	-0.012042318275757635	3.5604565661378786
O	-7.398063447825757	3.0186855687242424	3.106225156137879
O	-10.279362417825759	0.7133817509242424	2.084901766137879
O	-8.076356427825758	-1.6133949012757576	0.02388401613787894
O	-6.595341867825757	1.2270622027242424	-1.966459913862121
O	-9.866146847825759	3.095588198724242	-2.681323473862121
O	-7.695799337825758	6.242458078724242	-2.571464533862121
O	-3.786925467825758	7.911005348724243	4.448456826137878
O	-2.1882268978257575	9.005884328724242	7.675902806137879
O	-0.42921500882575747	7.052605908724242	10.359597066137878
O	9.248255352174242	-10.968340011275757	6.480942346137879
O	5.309398152174243	-11.500500511275758	0.6886406661378789
O	1.4335652621742427	-12.697187611275758	-2.390823403862121
O	-0.7960754578257574	-12.428732811275758	0.644828366137879
O	-2.7968079178257574	-15.558422111275759	-0.17002322286212107
O	-6.045802047825757	-13.642462211275758	-0.4769695799621211
O	9.628913252174241	-3.680043381275758	-8.49901261386212
O	-0.5045544708257574	-12.132997711275758	-9.460606623862121
O	-9.761504557825758	-5.325516991275758	-5.906899233862122
O	-6.556220117825757	-6.3153276812757575	-7.7409750738621215
O	-4.159495797825757	-5.380562951275758	-10.503767423862122
O	-0.9861696673257575	-3.408574891275758	-11.041449633862122
O	1.5099907721742427	-5.990391761275758	-9.876168833862122
O	-0.1860762198257575	-6.7332967312757575	-6.610498133862121
O	-0.2121317478257575	-3.1493665812757574	-5.370748553862121
O	3.384094442174243	-2.3792529912757576	-6.536318503862121
O	4.888120592174243	-5.506239471275758	-4.933552933862122
O	2.4413383421742427	-5.485147461275758	-2.010689433862121
O	2.829664772174243	-1.9031803612757576	-0.8758655448621211
O	6.641868532174243	-1.8269726512757578	-0.14577978486212112
O	6.346290022174243	-4.966923781275757	1.963402946137879
O	3.233602502174243	-3.7177839312757577	3.776666696137879
O	4.656684072174243	-0.2852742892757576	4.615260076137878
O	8.078698742174241	-1.5671864612757576	5.596590306137879
O	6.315679162174243	-4.068093651275758	7.863956806137878
O	4.267526602174243	-1.3392906012757577	9.42147123613788
O	-16.999885647825757	-2.1099436512757577	3.6344120061378793
