26

O	19.686983591590018	48.457170789046295	13.611371261560617
O	20.24527249049091	48.539380761986166	12.497012667627713
O	21.487053346509974	52.162090785802306	5.989804030412104
O	20.893873763683505	50.94942982992367	6.535699316345491
O	20.09594847562997	49.54232881263866	14.305837041940613
O	20.882107221367182	49.60111865588938	12.300496293558147
O	21.4332177163813	49.94458110410329	5.596715970746427
O	21.129420541564325	50.00054297431188	13.53916522914576
O	19.28455254639744	50.55662427934873	6.155850575832712
O	18.57739803359926	47.48761559839365	13.644308647232872
O	22.00786738932689	51.18608794247882	13.495934179328703
O	22.838738481604203	51.57493100901698	12.446985864701782
O	22.960268873347907	52.96093925860444	12.30779222611048
O	22.230910055436002	53.919255514226656	12.934215134169442
O	21.35760761913035	53.318095846918105	13.795309226614586
O	20.982250644776926	52.10894585797741	13.221702986985429
O	22.90182983942959	54.95343870981729	13.86834821928581
O	21.1403502663766	50.274836077368924	11.171875874138527
O	20.815987911963152	51.44612242254186	10.476814716031255
O	21.33109526402042	51.80769246048396	9.211330181416976
O	21.28124713512973	50.8455893500993	8.210099776143531
O	21.313199796144257	49.59925950820102	8.751342441127079
O	21.524131115989718	49.42428538812045	10.092293596865312
O	17.6632973442531	47.99652741068089	12.7593752736579
O	18.0315061043063	47.79450327447803	14.7781270731955
O	18.826742981225774	46.342866448037505	13.057462042683687
