23

O	18.782498057213886	47.34387008443145	15.86983876596948
O	17.7123882448257	48.16660912108602	15.706845251995468
O	19.53935214582095	46.98691610562995	14.780769965675715
O	18.600229349469345	46.77791504308846	17.024681016345966
O	16.818435811166488	48.26354529210914	16.67591818679083
O	19.395615881306835	46.95349541562456	13.325820222325003
O	18.58370776746086	47.916366160198876	17.936721484707483
O	17.29287659207381	48.26396849343213	17.959720423991353
O	19.752505284844542	48.283025254985546	13.361473540517334
O	17.822363151901406	45.58453702751591	14.70433727211702
O	20.231633943461144	50.47852355097093	14.079631867128281
O	19.546696865302827	49.86293965738469	16.121303331704507
O	20.7694866766132	49.855358265230635	16.609080837775394
O	20.6462137797795	48.524145383632515	17.499106648281845
O	18.304060094853998	46.74781061648837	14.049314571730223
O	19.995476107074534	49.514626712276964	13.102322248411037
O	19.37823209780347	50.52178264595017	15.017825976392642
O	20.702922325310432	46.52086582853125	15.090893311046834
O	17.61629133385631	48.91598557452505	13.086718549605331
O	16.10337819204451	47.46873661955475	13.985172434966364
O	20.869846523975394	48.12711800035608	14.06493624889072
O	17.384307886949877	48.086510986872426	14.122376602368345
O	21.461424509184138	50.389002990488066	15.15649814436237
