30

O	18.808817955929428	46.80559346676478	8.05428604219486
O	20.588140393811607	48.292939740744686	7.560371614430594
O	19.35388369345253	47.94695272135388	4.432133774125262
O	21.668534773635983	47.338992798242444	9.307631109466184
O	20.826062834777535	48.08762680392797	11.331839003380766
O	19.208735320565584	49.473328635303375	7.654668124322815
O	21.78473722891297	52.01883777788285	16.041046215806414
O	18.860335799287228	47.36510777988949	11.401847882691502
O	19.85352087542793	47.376074900492526	14.416962151194383
O	21.061560042627807	51.60328688616464	15.003761802805561
O	18.981374391693816	49.11622761182564	13.707563951194036
O	20.130507916202657	48.04413497810599	15.6601382715321
O	19.236771505467466	49.62185683365016	15.02877481037063
O	22.024562952074426	49.75472803635669	14.222473405065358
O	21.939891079327435	48.81197627600297	13.24489062632776
O	21.095068032586013	50.96847805773706	12.591938005790242
O	18.590134614061768	47.44922833920514	6.6727616141165536
O	20.237807626994154	50.07091483523045	9.3728695278951
O	20.11384090042542	48.49006242402251	5.400237285610886
O	21.05935184575464	48.43377316404347	10.02043194401941
O	19.791692175018525	48.12706450544633	13.36744661050399
O	20.14328269401286	49.31691079255804	15.905073567295204
O	21.32973375881871	50.82164775392297	13.926478703916837
O	21.41655120622296	48.96985354211051	12.007984995687915
O	21.040521746610604	50.11936676251428	11.444811244352527
O	21.299068848371782	49.78259596225138	10.174750907089644
O	20.111231685284697	47.567444553905034	6.469079225912027
O	19.811678171025243	48.806618300375014	8.60730863928099
O	19.874689706372695	47.45332040641879	12.043594702519645
O	20.338831145789428	50.003676628571334	17.354246039837673
