22

O	19.80883256383493	46.67360832631008	12.245879421832168
O	18.33709922686176	47.08632067302752	13.82751678310322
O	19.51267175949593	47.380112574856874	13.216963602241155
O	20.106104492501764	48.70533715440994	13.375573116959185
O	20.553196073863383	49.16748290956195	12.032801970605785
O	20.840812829929302	50.66147182443589	11.931773544100832
O	19.98759361389841	51.17045451368152	13.06709573488351
O	20.774355005008736	51.272923917426404	14.16088456903158
O	21.521865758183786	52.50613975546894	14.137580999389328
O	22.330988409134655	52.413432513076636	12.912271601841326
O	22.521133143327955	53.51229181581161	12.272912141188012
O	22.701363257461693	54.74144643111627	13.122916022305125
O	24.13089745507093	54.585169692085785	13.350335148590748
O	24.16098482076315	53.6207467207493	14.298908212545497
O	23.661053714636985	54.12635048262564	15.568049428861622
O	24.03312887463708	55.52811722022144	15.595971593545563
O	23.025629286566843	56.33341640363918	15.385021889443436
O	21.843891576376866	55.95890029317106	16.12386833357906
O	21.98415355551785	54.70695263095832	16.853388715661197
O	22.021754687928098	55.01061114424144	18.239954376503803
O	22.436983082001632	56.12526992969706	19.025940199917013
O	22.174391188783762	56.1204026666361	20.46973401299642
