15

O	18.573898066813832	51.3554216554262	11.624154062649087
O	19.359443351154706	50.28141494720739	12.71413772209853
O	21.13804866118854	51.85054128271486	12.825922856209221
O	18.920187286611533	49.112515779360294	13.342272830019457
O	19.59552269463388	46.13466261073838	15.712433548714637
O	19.820726405435366	48.09412587951096	13.684984149859638
O	19.482201948890328	44.45602291739686	14.302288413626306
O	20.996348983612837	48.25502522202731	12.92911340453929
O	21.432069669341033	49.532576492517954	13.03712544275065
O	20.634081177685122	50.610498260912706	13.083057374299415
O	19.28478747527631	46.74361554548178	13.615987265094734
O	19.812596447323745	45.76375599210227	14.54181184574857
O	22.01012024160887	51.97588723527578	11.744556287543059
O	23.054449948753245	52.97773813907701	12.129554471453222
O	23.417534266621043	52.882667795838145	13.393642631462155
