18

O	23.50457901801886	53.26180485161496	11.661452008847663
O	20.89773454024915	46.505379409380154	15.272932570758641
O	22.767729459231063	52.13160169664276	11.770701840481369
O	19.57393677637915	44.897217395797085	14.670363923242679
O	22.384706683715244	51.70827239684928	13.007894731311518
O	22.20187917687224	52.713562371010795	13.87826612066787
O	23.18359435380104	53.70153105379298	13.90839260734027
O	23.985473860986012	53.83500988575137	12.825517884671516
O	21.700372155489926	50.455730428639235	13.202006698915053
O	20.88393173384289	50.372804906356315	14.296952615505537
O	19.91596706222886	49.36127800151308	14.450919975309674
O	19.999739361530665	48.34567600110801	13.56101128580714
O	20.200679099116957	48.90755425785559	12.293149385203627
O	21.100231286032265	49.90756604331829	12.07526942969627
O	19.21998909514792	47.143031799196336	13.809662525584919
O	18.06792284783623	47.415528327071875	14.709194411460048
O	20.069210589843575	46.1347412416621	14.444907072769622
O	21.47167445138421	50.4346389600285	10.891812816011235
