87

O	-2.1849538479375004	0.5644960015781254	-0.3279920697343749
O	-2.0420746789375004	0.24272667557812544	-1.641251930734375
O	-2.0178732449375003	1.8663702905781254	0.07638710126562509
O	-2.8349182819375005	-0.4312853594218746	0.19464865726562508
O	-2.4940057619375002	-0.9218133694218746	-2.073981300734375
O	-2.0282754579375	3.198098710578125	-0.5278041112343749
O	-1.9380411479375004	-1.5564817794218746	-0.045572381734374945
O	-2.3260634479375004	-1.9987415794218746	-1.246174905734375
O	-0.7160833529375004	2.946321790578126	-0.8610473577343749
O	-4.106675181937501	1.8160986705781255	-0.6685554957343749
O	1.3501650480624994	1.8845962905781255	-1.272003473734375
O	0.3358409180624995	-0.06154677742187464	-0.8245904447343749
O	0.9430832280624997	-0.19501843342187464	0.33585834326562514
O	-0.3069265319375005	-0.7477866994218747	1.1792993492656252
O	-2.8249740319375007	2.2825295105781254	-1.060953965734375
O	0.47205082806249954	2.963508760578125	-1.341753232734375
O	0.8761476080624995	0.7722112404781254	-1.6570764707343748
O	-1.8187840909375004	1.9912491305781255	1.3460499292656252
O	-1.2891898409375004	2.4936254105781255	-2.983817730734375
O	-3.3711464519375003	1.5951362605781254	-3.204790610734375
O	-0.30400973193750036	2.6181206305781255	0.35964819326562514
O	-2.1809235529375	1.6581977935781254	-2.416981160734375
O	1.8537395280624995	1.2208927915781254	0.1372339632656251
O	-6.3856407619375	10.983048290578125	4.885559779265625
O	-6.633842971937501	13.778973090578125	2.270307419265625
O	-6.996275441937501	10.219100500578124	-1.181476456734375
O	-9.5715179719375	7.379057540578126	-4.705969850734375
O	-8.0454446619375	9.674044470578124	-7.290629240734376
O	-11.5776622019375	-6.945874089421874	-3.008143250734375
O	-13.4507706019375	-5.437832289421874	-0.09921744073437494
O	-11.3097880119375	-2.3236753394218743	-0.1439989277343749
O	-8.1586211719375	-4.078662779421874	-0.991177582734375
O	-8.8530739119375	-6.1002908294218745	2.137592869265625
O	-9.6100654619375	-2.9464018894218746	4.062199929265626
O	-6.556344201937501	-1.2372337894218746	2.780459999265625
O	-4.5755230019375	-4.286868299421874	3.828557169265625
O	-5.9520503319374995	-4.842672819421875	7.416747719265626
O	-6.3254069019375	-1.3072524994218744	8.731419889265625
O	-2.9652169819375005	-0.25763058942187467	7.408631019265625
O	-0.9776864139375004	-3.387943119421874	8.488650789265625
O	-2.3720312509375003	-3.075656649421875	11.955633199265625
O	-0.5293563639375004	0.1706521715781254	12.796702099265625
O	2.7889098080624994	-1.7340446794218745	12.873181599265624
O	13.8728148980625	-8.556188709421875	6.527200639265626
O	11.5599091980625	-8.750153699421876	3.5004516592656247
O	11.0987658980625	-9.928101809421875	-0.0427218487343749
O	5.160504218062499	-9.220638649421875	-4.859777290734375
O	2.4306303980624997	-9.321530409421875	-7.471986450734375
O	4.207057888062499	-6.7861867594218745	-9.686118170734375
O	5.1081502380625	-4.623835819421874	-6.681990770734375
O	1.5616909780624995	-4.436274729421874	-5.5244924707343745
O	-0.3745104719375003	-4.444872149421874	-8.782289350734375
O	2.1423546280624994	-2.4909085394218744	-10.916718700734375
O	4.5678758180625	-0.6712021394218746	-8.621682270734375
O	2.1144759280624994	0.6176191685781254	-5.910305950734374
O	-0.5521165339375004	0.9862729385781254	-8.540011520734375
O	1.5909908480624995	3.611592560578125	-10.317054110734375
O	2.759086788062499	5.248450110578125	-7.084493680734376
O	-0.7277344519375004	5.651298990578126	-5.756753180734375
O	-2.2942946429375004	7.029682330578126	-8.950200370734375
O	-5.4473337219375	5.287994600578125	-7.689929840734376
O	-9.1092787019375	1.5143709625781254	-7.350588870734375
O	-4.9283829719375	-2.858444949421875	-6.477838960734374
O	-5.001669561937501	-6.537652939421874	-6.126813720734376
O	-2.4701943019375	-8.993529779421875	-4.939774700734375
O	-4.3583910219375	-11.918089409421876	-3.433626290734375
O	12.5234188980625	5.1991254505781255	1.547439719265625
O	15.384112998062498	7.533673200578126	0.6026925292656251
O	13.8081515980625	8.449226950578126	-2.706053290734375
O	-2.5527795219375005	11.976863190578126	11.794125199265626
O	0.22982227806249966	13.078000790578125	3.2497280892656253
O	2.789853488062499	11.810483590578125	5.705086639265625
O	4.7162680580625	9.741299930578124	3.2669059292656253
O	1.6199177280624997	7.654304260578126	2.176773819265625
O	0.3272283180624995	7.125935020578126	5.630428889265625
O	3.6475417980624996	6.0622234305781255	7.145018449265626
O	4.772003298062499	4.335353370578125	3.995764849265625
O	1.5997079680624995	2.1776676205781254	3.351631309265625
O	1.7238663680624997	0.15797445457812542	6.6859145292656255
O	5.388738918062499	-0.6893403794218746	6.340471009265626
O	5.222676088062499	-1.6378738194218745	2.717360069265625
O	2.1109082280625	-3.910916779421874	3.1088003592656253
O	3.3248769680624997	-5.5788864694218745	6.1808837092656255
O	6.5791626980625	-6.2375492894218745	4.279777039265625
O	4.6896252880625	-7.664396329421874	1.326902029265625
O	1.8770271480624996	-9.703456909421876	2.908689819265625
O	5.3648788580625	5.467781140578126	-16.385855200734376
