18

O	23.185430140302273	53.708325919608804	13.909140265618808
O	20.903358360398087	46.48954883708972	15.277338371047788
O	22.20431593738122	52.718958594920146	13.87909138660049
O	19.566269459506763	44.89424666074606	14.67041321495676
O	22.38080969364651	51.71787200951264	13.010840488474315
O	22.789691475741122	52.1239020522275	11.778309951894327
O	23.510767682530094	53.26391107496356	11.66412280403243
O	23.990358901316256	53.84177478866873	12.828022929645215
O	21.738193577528662	50.44916160038292	13.210390938609887
O	20.882870531552566	50.37840768594267	14.306169680698417
O	19.925787561680686	49.36248047898723	14.453757279257482
O	20.008305818850875	48.34590732776195	13.566732854717799
O	20.230851798127166	48.901156158290306	12.302992096073247
O	21.123134815902368	49.904771396700724	12.088954762201446
O	19.23020738779749	47.14474183761411	13.813202041134025
O	18.06234693131038	47.435353932841295	14.68251159492355
O	20.061818265051524	46.13322217598161	14.457851164246405
O	21.482749978403508	50.43502100267983	10.897420074764314
