85

O	1.3770660413880593	0.3427482640746267	-4.716993425447761
O	-0.8486876066119405	-1.7847870629253733	2.333550834552238
O	1.0522231913880595	0.6595353380746267	-3.3992458054477614
O	-0.7643471756119404	-1.3183042329253734	4.449309414552239
O	1.9053766613880594	0.25676851407462675	-2.452096365447762
O	3.2128577513880594	0.4700478210746267	-2.7622275754477617
O	3.5896598413880594	0.48205942707462673	-4.062414515447761
O	2.6686637913880595	0.05275843807462677	-5.003724585447761
O	1.4715336613880594	0.09216144207462673	-1.0930206794477617
O	0.15067483838805945	0.45071694007462676	-0.8398713054477616
O	-0.3339677226119405	0.6848067020746267	0.4563623045522385
O	0.5049095453880594	0.35652228907462674	1.4641107045522386
O	1.7826715513880593	0.8058812795846267	1.1173118645522384
O	2.3078075113880594	0.6373067040746268	-0.1256842524477616
O	-0.017050039611940515	0.32358238007462675	2.8189006945522386
O	-1.2211925206119405	1.1824539350746268	2.9470922445522385
O	-0.36838667675194053	-1.0444696329253733	3.1867558645522385
O	3.5630653913880592	0.9416595050746267	-0.5281015089477616
O	6.540188261388059	-5.797520322925373	9.021846254552237
O	9.36147392138806	-3.4337244729253733	10.118635784552238
O	6.033594881388059	0.27011622507462674	9.640622084552238
O	7.670761521388059	2.091030777074627	12.529291684552238
O	2.8064839613880594	3.9485509470746267	11.427652884552238
O	5.59451416138806	6.424973907074627	10.704743484552237
O	-11.11228295861194	0.32301064507462673	11.929389084552238
O	-7.51291644861194	0.14505968907462674	10.753274584552237
O	-8.34880665861194	1.1668109260746267	7.246421364552239
O	-10.597792458611941	-1.8668912129253734	7.201944424552238
O	-7.9027669786119406	-4.034361332925373	8.747368734552238
O	-5.363127038611941	-2.8002202129253737	6.258615424552238
O	-7.819038078611941	-3.6205570129253735	3.4605979245522387
O	-8.78897915861194	-7.1541575729253735	4.531370534552238
O	-5.555923258611941	-8.696748272925372	5.765872954552238
O	-3.5292187786119404	-7.296998272925373	2.8450760145522382
O	-6.07777865861194	-8.152782672925373	0.10475113455223839
O	-6.4049316486119405	-11.672904132925373	1.3976596945522384
O	-2.8898380886119406	-12.771554732925374	0.43244237455223833
O	-3.8971360186119406	-12.695492732925374	-3.2626704254477614
O	8.24872026138806	12.532486767074626	-4.029335905447762
O	-9.28596588861194	5.452076577074627	-7.011984005447761
O	-9.93036862861194	8.061505687074627	-4.368573685447762
O	-6.8999581186119405	10.120397547074626	-5.359486985447761
O	-4.77615638861194	6.984907797074627	-5.774538855447762
O	-5.61631534861194	5.770973237074627	-2.2902496054477615
O	-5.89679577861194	8.994632417074627	-0.3382781424477616
O	-3.2223380786119407	11.004922867074628	-2.195351725447762
O	-1.0011390526119406	8.623525597074627	-4.157491385447761
O	-0.4865837636119405	5.749920667074627	-1.6960789254477615
O	-0.6921668616119405	8.287973447074627	1.1685112345522384
O	2.4751823713880596	9.982097497074626	-0.12066534244776161
O	4.23859087138806	6.736225927074627	-1.0158017744477617
O	3.66855530138806	5.268602387074627	2.4068825145522386
O	4.675586021388059	8.315328237074626	4.4663741845522384
O	2.077608131388059	7.039584977074627	6.964420354552239
O	-5.699499048611941	6.519177567074627	4.433230804552238
O	-9.362515368611941	6.537796497074627	3.5611822145522383
O	-11.15834725861194	5.560216517074627	0.4110082165522384
O	-3.3979240986119406	-8.387182942925373	-12.963661315447762
O	2.9191837513880596	-7.143657022925373	-10.138549155447762
O	7.502356271388059	-5.062661832925373	-9.338721855447762
O	6.050290091388059	-1.848815082925373	-10.687745515447762
O	9.09346330138806	-1.0034904329253733	-12.803173615447761
O	9.76944834138806	2.2073119870746267	-10.920930115447762
O	4.033109741388059	-12.883592832925373	1.2656845645522383
O	13.363529041388059	-5.881875272925373	-4.967184595447762
O	11.296699441388059	5.241032977074627	-0.8631263044477616
O	11.79435344138806	1.4445313460746267	-0.8096777344477616
O	12.33601134138806	-1.5695270329253732	1.3949727345522385
O	10.37921714138806	-4.222016852925373	3.2338582645522385
O	9.71974774138806	-6.566499172925373	0.34981628155223843
O	8.381285551388059	-3.9627181429253726	-1.9828667754477616
O	5.662123491388059	-2.7134001829253735	0.3529783335522384
O	4.59061739138806	-6.222394662925373	1.5022982545522385
O	4.31588171138806	-7.639467742925373	-2.0361638454477617
O	3.171297701388059	-4.338180452925373	-3.5357091354477617
O	0.3412321303880595	-3.5443383329253733	-1.1422802574477617
O	-1.8820689386119405	-6.668033982925373	-1.6208331654477617
O	-1.7622240486119405	-6.235840142925373	-5.383814585447762
O	-2.4281593786119404	-2.495200502925373	-5.224757575447761
O	-5.34544718861194	-2.7140156129253734	-2.7823607954477616
O	-6.927357948611941	-5.691638502925373	-4.528057565447762
O	-6.634162648611941	-3.7821416329253728	-7.815328835447762
O	-8.31198133861194	-0.7869726429253732	-6.292011545447762
O	2.7874682913880595	14.508896867074627	-5.070825615447761
O	5.619435821388059	16.043895467074627	-3.100507715447762
