15

O	19.2785083967799	45.2647164439923	14.436553950844385
O	19.564323428938568	45.28530569687706	15.63183495525137
O	21.345714322461625	51.36818545808534	12.722221004579342
O	18.77645516526331	44.045364887281295	14.12551379701392
O	21.989447928766165	52.42895810849312	13.394750064428885
O	23.42112123463698	52.511619221531916	12.958658446130624
O	21.595191251008817	53.83781452949634	13.49504980756632
O	18.729057949673418	46.55968006022534	14.007057476141801
O	17.50358679496429	46.68095467255825	14.797810703220383
O	19.59260384637416	47.7208946914555	13.989368726639777
O	20.275307502326246	47.89094945503156	12.774752087865227
O	20.409363417171914	49.19566443212413	12.398482031456474
O	21.019223116795743	50.075477081249765	13.294399322754748
O	20.455621993979392	49.822370045342446	14.541465642261038
O	20.00214828518651	48.594590072560145	14.9301368326236
