87

O	2.1696459532454555	-4.02185814730303	1.7556455129469701
O	1.5425414332454555	-1.7176391673030302	1.69248094294697
O	4.2001841732454555	-2.8605232173030304	1.3895385229469701
O	2.8201210032454553	-2.5411882573030304	1.1410894229469704
O	1.0445829032454554	-0.4463112473030303	1.49277101294697
O	0.6122580132454553	3.4142641726969694	0.6419574199469702
O	3.0925237932454555	-1.9751138273030304	-0.14735844805302986
O	-0.2374284027545447	-0.0038347563030303178	1.8863390129469702
O	1.7891838032454555	3.7117060026969697	1.1927193429469702
O	-0.44002488675454465	1.4248307786969696	1.73229140294697
O	0.13898096324545528	4.10781145269697	-0.20544031155302986
O	0.22825451324545531	2.03871510269697	0.6770710949469702
O	2.7188322932454554	0.5708661066969696	0.05580593694697017
O	0.5969388232454552	1.0195082476969697	-0.10562895005302986
O	1.4220802132454553	0.09878172269696961	0.34645830594697014
O	2.6329518932454556	1.6569334336969697	-0.7863594420530299
O	3.695009013245455	2.4493841526969695	-0.7366306750530298
O	3.8103268532454555	3.7730534726969696	-1.0490233490530299
O	2.8124193232454555	4.36122297269697	-1.7644817170530298
O	2.0024120732454556	3.3981743326969696	-2.2921671670530297
O	1.8386023232454556	2.08830310269697	-1.7871525770530297
O	-1.1842145327545448	-1.8011956573030306	11.87030077294697
O	0.36311548024545537	-5.30503921730303	11.94404797294697
O	-1.9711419667545447	-6.20351334730303	7.62781621294697
O	-2.5496638767545448	-9.784905137303031	8.70590384294697
O	-5.822591086754545	-8.340409407303031	4.778937152946971
O	-3.2216159067545447	-10.903888137303031	3.7332206729469704
O	-5.030278396754545	-13.900461737303031	5.072400752946971
O	-17.113755676754543	0.1490053246969697	1.8884175529469704
O	-13.554106276754545	-0.6872002173030304	2.84419875294697
O	-12.086331876754546	0.8952744759969696	-0.23361682625302987
O	-12.495885876754546	3.5405045326969695	4.47543104294697
O	-8.978989016754545	2.9249317426969696	3.2028694529469703
O	-9.241949806754546	6.14933378269697	1.17491963294697
O	-8.702627846754545	7.42421181269697	7.01852438294697
O	-5.327475116754544	7.14808043269697	5.14681554294697
O	-5.7223728867545445	10.419481232696969	3.2002424529469704
O	-3.3352227567545447	12.07880436269697	8.01981715294697
O	-1.8824283167545448	14.52613246269697	5.458310592946971
O	5.924000853245455	-11.22013253730303	-3.3834903870530297
O	7.069793333245455	-11.892158437303031	-6.96343104705303
O	7.640992943245455	-8.20359102730303	-7.87725502705303
O	-4.318965426754545	6.2598196626969695	-11.85826502705303
O	-6.498333946754545	3.2420951526969697	-12.420054827053029
O	-3.5429991867545447	0.9700854863969697	-13.19958102705303
O	-1.5300779737545447	2.4739516226969696	-10.35131322705303
O	-4.263896886754544	1.8042867836969698	-7.83443815705303
O	-5.744113626754545	-1.4219089673030303	-9.100550937053029
O	-2.5554048167545447	-3.0176450473030303	-10.48737672705303
O	0.45642591324545523	-1.2474378373030306	-8.98869721705303
O	-0.6500166249545447	-0.9142715673030303	-5.38968153705303
O	-2.5643279967545447	-4.10029932730303	-5.58581870705303
O	0.6974566132454553	-6.00424733730303	-6.25380632705303
O	2.7464784532454556	-4.09085048730303	-3.8029590170530296
O	0.15162311024545527	-4.50562591730303	-1.08322780505303
O	-0.24381472175454466	-8.33217290730303	-1.53193756705303
O	-3.7849439067545445	-7.664030287303031	-0.26108041635302986
O	-8.995958966754545	-7.0873622273030294	-0.6436889390530298
O	-8.449992956754546	-2.4729357973030304	-4.57327852705303
O	-10.823030576754546	-0.35561320730303037	-6.59077073705303
O	10.683635423245455	7.46660828269697	1.36738154294697
O	10.227797323245454	6.62304202269697	-2.30256289705303
O	13.810449823245454	5.79411496269697	-2.87965696705303
O	13.121326423245455	2.22169886269697	-3.79946630705303
O	12.829714823245455	-3.0656149973030304	-0.41916936905302987
O	13.009800423245455	-3.0277947573030306	3.42069696294697
O	1.6354892132454553	8.63024420269697	11.49567447294697
O	15.073195523245454	0.6141875376969697	5.08943620294697
O	6.375963143245455	-8.50301317730303	2.6433843629469704
O	8.295821073245454	-6.21008967730303	0.4091629549469702
O	8.768469923245455	-3.7668936773030306	3.35832170294697
O	7.984962783245455	-3.0554683673030305	7.00203603294697
O	5.357997923245455	-1.3247966973030305	9.10517813294697
O	6.6501289532454555	2.2294681226969697	8.856490382946971
O	6.876742183245455	2.2595531626969696	5.07842566294697
O	3.3109011332454554	1.4142433196969697	4.59642361294697
O	1.8351416932454554	3.5865056526969696	7.20678593294697
O	3.7970856132454553	6.68755961269697	6.060130002946971
O	3.7733721832454554	5.80019543269697	2.3978452929469705
O	0.03810994824545533	5.11240207269697	2.11550250294697
O	-1.3933445557545445	8.51619765269697	2.93669432294697
O	0.9704752732454552	10.23089049269697	0.5417248869469702
O	0.2925691492454553	7.81263606269697	-2.31401351705303
O	-3.5158920667545446	7.95401561269697	-2.0105810370530297
O	-1.4606256307545447	12.012706962696969	-4.63108544705303
O	3.8843254032454553	-6.56342273730303	-12.137108427053029
O	4.903029033245455	-9.99827903730303	-10.93550492705303
