25

O	19.962233802383743	49.962921424836026	13.443175583036275
O	19.740123574870434	50.07841622507626	15.531741163491875
O	19.365586954540294	48.77362061392361	13.334617033188858
O	24.345623642412924	51.653347798207385	13.27872028964349
O	20.50103883032193	48.08504938893597	13.336434328092198
O	19.4251468147127	45.46470099909379	15.242969698097642
O	21.50450429181547	49.006736804771165	13.045115072408485
O	20.00387212852347	47.21879998318163	16.458221625273815
O	22.645207690601005	49.710252066771915	13.431530030148277
O	23.413144316870664	50.68410052348112	12.861558707123464
O	22.829004100216626	51.21042715459522	11.77986802006226
O	21.571442925755548	50.781496966713355	11.760040405202673
O	20.811641898116573	50.028506146927164	12.475644087165435
O	19.822870630288474	50.824304154216755	14.495788750131116
O	20.92282218742359	51.68502890522842	14.128695678867235
O	21.796699192379755	51.69896222984073	15.085091789088473
O	22.634638312595253	52.773770062952906	15.176993020014304
O	22.95645932012018	53.624459490103874	14.215239231069678
O	21.988641282999176	53.642351501907925	13.280693942223904
O	21.069139793694507	52.62975682656527	13.312482455501751
O	17.992525262664635	48.7056410973533	12.874099368322204
O	20.65347594740589	46.96661672228315	14.156020367479831
O	19.71338821987516	46.670922447631746	15.235672872968877
O	24.954408726232565	52.63415947277217	12.421705877466614
O	24.01149077125458	55.345895963364434	14.664589066592574
