89

O	1.5155101365434778	-4.403187588675363	4.196559537855071
O	0.9617807565434777	-4.688478708675363	5.264852417855071
O	0.8553471565434778	-3.415040778675362	3.3216176678550715
O	2.8706477065434783	-4.421464458675363	4.152705437855072
O	-0.606863398456522	-3.6689511986753622	3.4656057878550715
O	-1.4603805180565221	-2.9614403786753627	2.4825868978550716
O	-0.5438728244565221	-2.121893438675362	1.6955677378550718
O	-1.1120495174565221	-0.7983645186753623	1.3338488478550716
O	-2.264447938456522	-0.5784620926753623	2.3130045878550716
O	-3.3980839034565222	-0.17611538067536225	1.3555516978550717
O	-3.397525673456522	-1.3601333886753622	0.48748429785507164
O	-2.431065963456522	-1.4492060886753622	-0.3827093714449284
O	-2.138662857456522	-0.3177189816753623	-1.2642701851449285
O	-3.552039443456522	0.18644646332463774	-1.5769665921449283
O	-3.630992333456522	1.3871700713246378	-1.0441358301449284
O	-2.364942842456522	2.118842481324638	-0.9180689821449284
O	-1.444476537256522	1.5192686513246378	-1.9837095621449283
O	-0.9431027374565221	2.864968361324638	-2.9372408421449285
O	-0.7721235474565221	3.752152871324638	-4.014043092144928
O	0.2026678865434779	4.774295231324637	-4.414229492144928
O	0.9567483265434777	-8.999836998675361	11.781232517855072
O	4.194473626543479	-12.098624868675362	9.07962748785507
O	1.1464750365434777	-14.277477468675361	8.470620947855071
O	11.760564216543479	-4.850061908675363	2.6569327878550717
O	13.979366816543479	-1.8857613486753622	3.3663011078550715
O	9.18344401654348	-1.883313768675362	5.868470117855072
O	9.879054316543478	0.9348665333246378	3.396650307855072
O	11.691303516543478	3.349045801324638	5.731075277855071
O	6.4242296865434785	3.161465301324638	7.328415077855071
O	7.205177076543478	5.991806421324638	4.8472597178550725
O	8.581240016543479	8.122854201324637	7.61607754785507
O	5.261911106543478	8.691868831324639	9.39574186785507
O	4.131607116543478	10.959132731324638	6.521910017855072
O	-11.378321973456522	-11.280094868675361	-6.5421612121449275
O	-8.435760893456521	-7.320132808675362	-8.060616172144929
O	-7.822107363456523	-1.2694205886753622	-7.0945441721449285
O	-6.419465193456523	4.744656221324638	-7.3853222421449285
O	-4.686522863456522	10.297130621324639	-7.924003362144928
O	-8.206042233456522	10.492584431324639	-6.605817572144929
O	-0.37356150345652206	13.391453131324639	-7.049110712144929
O	0.957137836543478	9.870980081324639	-7.713136982144928
O	1.500343706543478	7.120632901324638	-10.25109795214493
O	5.5647574965434785	-1.6623203186753621	-14.627577582144928
O	2.533523566543478	-0.41034182667536223	-12.700717982144928
O	4.519261786543478	0.03467519232463773	-9.479768332144928
O	6.134964336543478	-3.3725616186753626	-9.651252912144928
O	2.8195854365434783	-5.196448848675362	-10.034747902144929
O	1.1790607065434777	-3.0004297286753623	-7.419425782144929
O	3.8169124565434775	-3.7307095886753627	-4.826553812144928
O	4.744565326543478	-7.322140128675363	-5.641666332144929
O	1.330667546543478	-8.618876028675361	-6.7455305421449285
O	-1.316138329456522	-6.279478248675362	-5.581586692144928
O	-0.06128365345652198	-5.498701038675362	-2.0236253521449283
O	1.2661862665434778	-8.923295598675361	-1.6908784521449285
O	-2.3172983154565223	-10.305207368675362	-2.0241492121449287
O	-3.875680313456522	-7.561354298675362	0.15586870885507165
O	-1.446317646956522	-8.17351109867536	2.9719394278550717
O	-1.585113893456522	-11.975420468675361	2.9712455778550715
O	2.075294936543478	-11.769502268675362	4.054807997855072
O	7.375669556543478	-8.10513190867536	-1.0424597981449284
O	9.957994316543479	-3.7675174386753625	-5.676226352144928
O	1.4164893665434781	14.671026831324639	-2.3548489421449283
O	-1.975898724456522	12.949691531324639	-1.9799518221449284
O	-5.934672253456522	8.790899801324638	2.140587067855072
O	-9.678762513456522	5.625684311324638	3.712284197855072
O	-9.588327253456521	4.174545631324638	0.20980189685507167
O	-13.362545883456521	3.919713871324638	-0.15844551814492835
O	-13.339784383456522	0.15793814132463774	-0.5890238771449283
O	-16.870279283456522	-0.25388336767536224	-1.9208147921449283
O	-0.10290389345652207	6.659912241324638	13.378337517855071
O	-12.113694783456522	2.398373221324638	9.787910517855071
O	-5.492897423456522	-2.8354695586753627	12.489138517855071
O	-6.150709633456522	0.8113974413246378	11.753955817855072
O	-6.570526823456522	0.38005293292463777	8.059423717855072
O	-3.1830636634565224	-1.2758425286753623	7.523063077855072
O	-1.256802302456522	1.1004743323246378	9.776274317855071
O	-2.734506633456522	4.296578091324638	8.28800381785507
O	-2.917677673456522	2.8192964513246377	4.815334737855071
O	0.7067496165434779	1.5962373013246378	4.577648207855072
O	2.6109644465434783	4.8001064713246375	4.933858997855072
O	0.436860046543478	6.587538071324637	2.3840215478550717
O	0.9057156265434778	3.791753191324638	0.1524070888550716
O	4.478149236543478	3.207714951324638	0.07900377385507162
O	5.171013406543478	6.946530401324638	-0.0010474741449283953
O	2.9603850265434777	7.198478301324638	-3.0855819121449284
O	4.8363305265434775	4.385843591324638	-4.769779532144929
O	8.455520596543478	4.926725631324637	-3.8451121621449285
O	-5.722483983456522	-11.233792668675362	-7.759110492144929
O	-7.2305467634565215	-14.223004568675362	-6.019537372144928
