25

O	19.633706745136482	49.27336206856456	13.908086463727582
O	19.752967480352254	49.44771982609031	15.898882570951653
O	19.006204933314923	48.072234770853704	13.881723649762177
O	23.777376084804317	51.072309386406566	13.549234207843456
O	20.10652404742231	47.34533870486132	13.728468585323313
O	18.41941128428233	45.698563992958945	16.48964616411413
O	21.064282752597677	48.265839917418866	13.251502921272936
O	18.434856888861592	44.477423539007816	14.806953185751428
O	22.22425459561186	48.97335234568244	13.585304987609751
O	22.901832086215737	50.105119777134675	13.120369168117774
O	22.29005154427308	50.675996291126495	12.104449348423767
O	21.01586023760106	50.221636537181936	12.076921091654055
O	20.373075787530258	49.32086101488585	12.82471725442974
O	19.679708523524813	50.22610865474384	14.884497337376356
O	20.704721739070493	51.16539662263987	14.422408974444066
O	21.58215890911838	51.29736331076998	15.366778351777604
O	22.399936801804465	52.438168755523094	15.351128990761367
O	22.761303232405947	53.20686420297045	14.32163744993859
O	21.67425929802359	53.205393937804416	13.526988407807204
O	20.795028017996238	52.16027203522878	13.618607363883223
O	17.596961307087717	48.08081677459827	13.638152235308512
O	20.025504477974852	46.26480432610061	14.668382413056795
O	18.85522955998845	45.73325057749709	15.296468409114963
O	24.514829446731767	51.976641666386705	12.842511349601724
O	24.049550861920068	54.79910633337714	14.745650875514313
