90

O	1.2710743141018617	0.16276575309230767	0.697728005940001
O	1.487592894101862	-0.6844012279076923	-0.2618096520599991
O	0.5127971041018617	2.0019815420923077	-2.8458242340599993
O	2.5163067141018614	5.146624652092308	-2.885140984059999
O	0.22124791410186173	-0.8308106679076923	-0.6023465505599991
O	3.259370954101861	0.20423454009230768	0.906015715940001
O	-0.05663551489813823	0.09890173109230771	-1.6389579400599992
O	-3.298972875898138	0.3600019510923077	-0.31373953305999913
O	0.8691153341018618	0.7304451030923077	-2.4649084440599993
O	-1.4843629348981382	1.2695549560923078	0.2975191829400009
O	1.908935704101862	-0.1432820979076923	-2.636934074059999
O	2.185228914101862	-0.7514248679076923	-1.415615838059999
O	-0.3555550678981382	2.718692682092308	-2.005104274059999
O	-0.33535503389813826	-1.0012922279076923	0.5836536859400009
O	0.14145571410186175	0.08206053709230776	1.3363770059400006
O	2.296566804101862	1.0346831335923077	0.8653517559400009
O	2.387361454101862	1.6473047210923077	-0.4321537120599991
O	1.6176070741018618	2.671445542092308	-0.3033778910599991
O	2.145094164101862	3.7686398020923075	-0.9225891280599992
O	2.660870304101862	3.6229172120923074	-2.113368924059999
O	3.4839801641018617	2.5835741620923076	-2.2214310140599993
O	3.3014575441018614	1.5952884150923077	-1.316178805059999
O	0.25156089410186167	-0.29814692790769226	2.8011120059400008
O	-1.6912621538981383	-1.1780033379076922	0.35034825594000096
O	-2.181890905898138	0.1709117950923077	-0.1150377760599991
O	4.202579494101862	-12.926278797907694	0.8073298359400009
O	-1.0697526978981382	-12.833567597907694	2.435382775940001
O	1.2245106541018618	-10.201189397907694	3.980543935940001
O	2.1684113641018614	-12.705850997907692	6.6466146659400005
O	-1.4969491548981382	-13.188947397907693	7.546144295940001
O	-2.122270925898138	-9.423346397907693	7.67924238594
O	0.8413548941018618	-8.903213277907692	10.020316835940001
O	-11.366467565898137	-3.726205827907692	3.234422815940001
O	-13.607470265898138	-4.363124747907692	0.2531139159400009
O	-11.399555565898137	-7.269193377907691	-0.6472779374599991
O	-8.143450625898138	-5.238496817907692	-0.23892224605999912
O	-9.653314365898138	-2.5826354179076922	-2.446114964059999
O	-8.219917005898138	-7.5510140179076926	-5.301778614059999
O	-5.7508513558981385	-5.032481767907692	-6.675236224059999
O	-8.079166485898138	-3.2981479079076923	-9.19208043406
O	-3.733817335898138	-4.758817147907692	-12.016911864059999
O	-4.277153235898139	-1.2895911379076923	-13.467107564059999
O	8.647111554101862	5.686111152092308	10.324984935940002
O	2.943189654101862	12.738758902092307	-3.546741484059999
O	0.5519079441018617	14.418611202092308	-8.57739195406
O	-7.873535255898139	10.581287682092308	1.2855607359400008
O	-8.939526105898137	9.571624082092306	4.787356855940001
O	-5.620310725898139	10.297317252092308	6.436494065940001
O	-3.668540905898138	8.625358102092308	3.6901721859400007
O	-5.620232405898139	5.414563302092308	3.936462745940001
O	-6.185168105898138	5.181106672092308	7.608487185940001
O	-3.0060651658981383	6.640625982092308	9.05182640594
O	-0.39795566589813824	6.761240522092308	6.32790609594
O	-0.9084370115191382	3.501104762092308	4.418667725940001
O	-1.9833241058981381	1.9993810020923077	7.78711794594
O	1.4374047941018617	2.6878855420923076	9.251518695940002
O	3.2845392841018617	1.6381274120923077	6.072419625940001
O	1.5392491241018618	-1.6576439579076923	5.8249183459400005
O	2.230894904101862	-2.8303102179076927	9.30659343594
O	-1.1264284338981383	-4.5628074579076925	9.056259585940001
O	-7.799457475898138	-0.05712692790769225	7.092876175940001
O	-10.944988765898138	1.8982841880923078	6.23526810594
O	-11.784853365898137	4.814623112092308	3.9618864159400005
O	4.386229574101861	4.735715232092308	-9.88663396406
O	8.186834594101862	6.463176052092308	-5.268847814059999
O	11.839648334101863	7.199810462092308	-1.3641566360599993
O	14.946728734101862	9.295251592092306	-0.7945059257599991
O	13.922900534101862	7.953994342092308	4.086909305940001
O	14.011887234101863	2.3155409320923077	1.8091564959400008
O	2.1600962741018614	-7.518346647907692	-11.292429864059999
O	13.422837834101863	-1.4929732679076924	-5.498914694059999
O	15.97640383410186	0.13552135609230775	-3.1932445240599994
O	10.415754334101862	-0.7643870079076922	5.210025555940001
O	9.953702734101862	-2.227186417907692	1.7018109759400009
O	10.479930134101862	-5.3661945779076925	-0.2838767110599991
O	7.815888794101862	-7.254117717907692	-2.156890904059999
O	8.195742304101863	-5.506599677907692	-5.485805264059999
O	7.614431784101861	-1.9890157179076924	-4.027507374059999
O	4.509670224101861	-3.068084917907692	-2.198979024059999
O	2.9369007341018616	-5.083440507907692	-5.04752282406
O	3.5559702441018617	-2.4208905279076927	-7.717047044059999
O	2.7491274541018615	0.3552234460923077	-5.254663024059999
O	-0.39958028789813826	-0.8201778079076922	-3.6508079740599992
O	-2.4387906458981385	-0.8064111479076923	-6.814949864059999
O	-1.4631948258981382	2.599871722092308	-8.249274214059998
O	-2.046976115898138	4.151315902092308	-4.874281614059999
O	-5.524084075898139	2.785416292092308	-4.144543384059999
O	-6.644536195898138	3.6192660820923077	-7.660028624059999
O	-5.6341205458981385	7.256014812092308	-7.1708099040599995
O	-7.221596575898139	7.395687442092308	-3.7225066140599994
