20

O	34.274334472906546	-26.51293663058238	-11.32807735159638
O	32.02402124635975	-21.052265359741124	-16.67725079218557
O	32.348423958011544	-22.291479757509382	-17.253672220744754
O	30.812224788373342	-21.308219104062733	-15.944450795326441
O	32.160310311463704	-25.779907460055753	-12.495301736167521
O	31.565944867920322	-25.177890057695855	-13.613924627492404
O	34.11588835675581	-25.79066935053278	-13.561125276495316
O	33.68045626315846	-27.211587991383873	-15.36295040375891
O	34.207811921231055	-28.244450111499294	-14.380311685638798
O	33.502514264884724	-25.737420827101396	-12.315378876835606
O	33.01371919768569	-23.00244464468469	-16.236174631848954
O	31.006376502534327	-22.382151680004927	-15.048551027013694
O	33.52532296203691	-25.899996140101926	-14.77078505042121
O	32.343346686317744	-25.259536908610304	-14.695996522069635
O	31.85497763356532	-23.30913647988356	-15.484850813834166
O	31.628090844545255	-24.72735384949647	-15.629750571504417
O	35.40058492772562	-28.31723941884591	-14.028412600083714
O	33.462578197296324	-28.735729540826128	-13.333538107596059
O	29.690344249525275	-22.995986332604794	-14.032754646245555
O	33.53410611664286	-24.14641933402905	-16.776703958935354
