24

O	32.612725554209916	-20.3225042638095	-18.809003057160233
O	33.389886925232005	-20.725045138836204	-19.68382831147096
O	32.065508260282016	-21.320592468840733	-17.88928252454277
O	32.649816743731975	-18.99485090686469	-18.49280547363092
O	33.15704725494834	-21.93663708592242	-17.125943579419822
O	32.73479955112454	-23.00415706452317	-16.210280287875257
O	33.406238303842954	-23.98041868397242	-15.666903678991833
O	34.874667536067	-23.835900173661063	-15.62873487377014
O	35.424219350556285	-24.822840516994688	-14.725897059828904
O	34.83281806224271	-24.815916864856447	-13.551263070327945
O	33.43735996296864	-25.105691030077892	-13.804023372191491
O	32.8868393065465	-25.695437706272692	-12.641413277832173
O	33.621742970705604	-26.311206547207874	-11.83454883825393
O	34.913727736025166	-25.844010470843646	-11.40783333746911
O	35.510612575846736	-27.10867736986847	-10.831992605260773
O	35.44734556572526	-28.098641009525576	-11.69923759222822
O	34.312361952505555	-28.035729171252534	-12.621617199291801
O	34.69897514689448	-27.97466881607287	-13.969018190151072
O	35.88422111458504	-27.615617178754	-14.255554617227427
O	36.82500694725418	-28.016426239030153	-13.224718324111004
O	37.475248014563036	-26.810145226576743	-12.967628207103147
O	38.67661324360134	-27.16539264163243	-12.192612628061195
O	39.37960824635275	-28.25996127498684	-11.618209758282312
O	40.551198490274906	-27.835804018540763	-10.783679967554523
