26

O	34.36691043350924	-22.13959289038959	-17.190371033904402
O	32.26528714969522	-22.033640445001407	-17.09926865253871
O	25.737705620856897	-20.678228969830336	-16.08972414291279
O	26.57345251328015	-21.191036910453786	-17.16719162532979
O	33.34117201579882	-22.316280347512375	-16.310240514296645
O	32.69965876680123	-21.167719532602373	-17.96680305234277
O	25.667173885491835	-22.0895529554429	-17.908809890994036
O	33.889901201869925	-21.489677392161045	-18.2817068985223
O	26.618547169021	-19.854414605193398	-18.177742975463524
O	34.5651373237263	-20.72362959160187	-19.37666554490445
O	31.083853632341864	-22.12431347715747	-16.405250202511763
O	30.08538897388708	-23.073006256405012	-16.174952040057235
O	28.71607767164664	-22.885896280306035	-16.478822541396497
O	28.179657789785832	-21.69611870558998	-16.844273736048024
O	29.03215253634997	-20.688118525568495	-16.567266965001316
O	30.367998746374163	-20.904998484876177	-16.241213718685803
O	32.93629612494126	-23.422145624829806	-15.374866667130124
O	32.708309930718286	-23.237934074304643	-14.029037509301771
O	33.38883108531654	-23.8049190221067	-12.986610369464445
O	34.53139311269423	-24.455607578998972	-13.082573051759608
O	34.670276128375825	-24.936974983592147	-14.298954421065668
O	34.01248115861519	-24.29822288981658	-15.285589831335367
O	35.53472483064206	-24.950876036986653	-11.633341905240766
O	33.74454684394059	-20.73679156537312	-20.457724162865734
O	35.66410397806844	-21.364762621377363	-19.73786660224513
O	34.596379769012295	-19.445477565323102	-18.981708436050592
