86

O	0.526990379228125	1.7594323479375005	-1.974012129796875
O	-0.37917963877187494	1.9993105279375003	-2.7213524497968744
O	0.5654388292281252	0.6525410229375004	-1.0447675177968747
O	1.7411014992281253	2.2953336979375005	-2.1445291597968748
O	-0.753082034571875	0.023146539937500377	-1.1515485297968748
O	-0.4393581247718749	-1.4314021220624995	-1.1870873197968748
O	-1.7340676587718749	-2.0206505820625	-0.9645845627968747
O	-2.325984190771875	-1.8465252120624998	0.18728442120312533
O	-1.5243097167718749	-2.2298651020624995	1.3174162202031252
O	-0.28248218277187487	-1.5307263620624996	1.2301691502031251
O	0.6651182492281251	-2.3913593720625	1.171101280203125
O	1.103344379228125	-3.1439470520625	2.2765922202031255
O	1.2543362792281252	-2.4917949820625	3.4868159802031253
O	2.3596676192281247	-2.1361701920624996	4.036423100203125
O	3.643218439228125	-2.5108647320624997	3.4838530702031254
O	4.339811309228125	-1.2970798520624998	3.1067286202031252
O	3.757242089228125	-0.16118055306249968	3.3361541502031256
O	2.3556950392281255	-0.19259998206249962	2.8656692302031255
O	2.6685377892281252	-0.41002724206249963	1.3862300502031253
O	3.414395279228125	0.9001164009375004	1.0684689802031253
O	4.831071049228125	0.9528880299375004	1.4454764102031252
O	5.4074218292281255	1.9712997279375002	2.3425276502031256
O	-9.369851370771876	-7.637354552062499	0.2670405532031253
O	-11.200890890771875	-10.8838254120625	-0.3438309777968747
O	-12.235642190771875	-9.6985767120625	-3.8117090097968744
O	-8.677197720771876	-8.550975712062499	-4.631584789796874
O	-7.261750790771875	-11.945658512062499	-3.6360080697968744
O	-5.645732960771874	1.3793702469375004	-10.088193779796875
O	-7.1644491307718745	4.8435522079375	-10.179918479796875
O	-9.681762250771875	3.6642859679375004	-7.634113189796874
O	-7.0463830207718745	2.0888157679375006	-5.3888249597968745
O	-5.1250854407718744	5.3522183779375005	-5.557217729796875
O	-8.009624570771875	7.7137486579375	-4.842130069796875
O	-10.140963650771875	5.6921483779375	-2.4069651097968747
O	-7.490009990771875	6.0714075879375	0.2362788772031253
O	-6.5344010607718745	9.725430077937501	-0.3177831597968747
O	-9.154963120771876	11.0721049879375	2.0258738102031253
O	-7.527313260771875	9.2700388879375	4.981777850203126
O	-4.475911180771875	11.5253525879375	5.134242180203126
O	12.051340409228125	-2.6667280620624996	3.0128911902031255
O	12.064427209228125	2.8641005379375004	4.233176080203125
O	12.447083109228124	8.5896026079375	5.105764010203125
O	9.645414909228125	11.1880260879375	1.1866414002031251
O	11.266695209228125	9.2382197579375	-1.6020522397968748
O	8.617007129228124	4.435454537937501	-7.156394159796875
O	7.9760067992281245	1.9683586779375002	-9.991481499796874
O	9.568853709228124	-0.9981910420624996	-8.278125069796875
O	7.917002419228125	-0.2640626110624996	-4.958311669796875
O	4.450289149228126	-0.18225585506249964	-6.446324039796875
O	4.6791490192281255	-2.8546919920624996	-9.046989699796875
O	6.926085529228125	-5.4057518920625	-7.388197739796874
O	7.204553529228126	-4.6816459520625	-3.7081644997968746
O	3.727138579228125	-3.7246671120625	-2.7415672497968746
O	2.4143566092281254	-6.0454103220625	-5.442913239796875
O	3.9709887192281252	-8.9683453720625	-3.6385337297968747
O	2.870768459228125	-7.8288085120624995	-0.2204479677968747
O	-0.7287213167718749	-7.3731181220624995	-1.309851749796875
O	-1.2200640037718748	-10.8140430120625	-2.6577882897968745
O	-3.597034100771875	-9.0589144020625	-5.030774939796874
O	-0.8175130033718749	-2.7855741220624997	-9.629524909796874
O	0.33464328922812503	0.07164150393750035	-11.856877779796875
O	2.6644759792281247	3.0420336879375003	-11.504895679796874
O	3.713388439228125	5.2544007579375	9.676327650203126
O	6.7162105392281255	-0.19229776906249962	9.739374320203126
O	8.766989739228125	-5.0745994020625	10.703969420203125
O	11.469191709228124	-6.743556002062499	12.790487120203126
O	-8.972493800771876	4.8417166579375	9.592516470203126
O	0.015058929228125129	-4.6486229920625	15.052069820203126
O	-0.34143264777187493	-8.7028776820625	8.131448410203125
O	-3.613136280771875	-8.1430589220625	9.973717920203125
O	-6.2631662407718744	-5.6005793520625	8.999663890203125
O	-5.0134230007718745	-2.6881004620624998	11.086333120203125
O	-1.499984565771875	-2.7490609320624997	9.605616010203125
O	-2.9350510407718753	-2.7379607120625	6.080808150203126
O	-5.510575460771875	-0.04044227206249962	6.481125110203125
O	-3.150422150771875	2.3373167479375003	8.267107480203125
O	-0.18016004277187492	1.4718312039375003	6.139064300203126
O	-1.5872684457718749	1.7592522679375002	2.7752490202031255
O	-2.660759830771875	5.3141374579375	2.7683437802031254
O	0.6323972092281251	6.7191789979375	4.146814430203126
O	2.471254149228125	4.6833095579375	1.6359177602031252
O	0.641151659228125	5.8199939479375	-1.4573316097968747
O	0.7123552892281251	9.3732210079375	-0.4424134837968747
O	4.522609119228125	9.2893518179375	-0.1949532527968747
O	4.912208279228126	7.4445621379375	-3.4939829097968746
O	9.464043709228124	-14.4144279120625	-2.7934633997968747
