23

O	33.26710427344651	-22.614882894168566	-17.282510387283534
O	34.45656536896025	-23.382103298884793	-17.088749838022498
O	35.04278025080708	-23.147759246945846	-15.844006573154532
O	34.06599174439742	-22.88436845347759	-15.037690536162104
O	32.861500518558955	-23.467658392891263	-14.690411209251076
O	32.036569826086215	-24.23299970924437	-15.658595490318078
O	31.32039476987519	-25.005971833398533	-14.886616531527848
O	31.841682850431766	-25.86047616268468	-13.972272355979356
O	32.73669521746178	-26.61747116727258	-14.838370246846061
O	33.67728072067158	-25.898695560083198	-15.367486291235068
O	33.15939133728479	-21.45900243301496	-16.707679206606752
O	34.061333147544936	-20.423557308741994	-17.139107274469602
O	34.51195601360566	-20.654797042650586	-18.512255266774964
O	34.715390844785546	-25.97202889339679	-14.223129350573886
O	34.12534916958753	-26.16378485639211	-12.862701754007249
O	35.28521634877197	-26.856298914419387	-12.111854082512222
O	36.12648488628496	-27.69138557600538	-13.031493932262372
O	37.17164640082894	-28.370458403825793	-12.163578393694088
O	35.42259839003239	-21.704209161790853	-18.76386844831746
O	36.81882166730341	-21.469259076859128	-18.564577617202172
O	37.067881716054956	-20.46167106415715	-17.929238263569218
O	37.54299609972284	-22.60319305124087	-18.343380189439376
O	31.036711175335924	-26.953929373716633	-13.278462560967503
