27

O	32.07486109053553	-24.76529603775938	-14.092502737303539
O	32.22915828500772	-25.715692527401366	-15.12775624661499
O	30.823320939530813	-24.00056491153347	-13.967183054950986
O	30.319983714540392	-23.910144753425516	-15.367273637741432
O	33.14803169522531	-24.540578356364005	-13.543624610000387
O	31.501505567987977	-23.941822156131707	-16.332926405460775
O	32.10215822472793	-22.736602957895467	-15.61453330788535
O	31.565815118422787	-21.71135137269451	-16.209693169373672
O	32.08426738156013	-21.230062967358204	-17.48371459500229
O	33.07444950480109	-20.274767737847746	-17.06299691363645
O	33.84201788157478	-19.672726976496843	-17.878107201950847
O	34.19654263015745	-20.05627088612392	-19.228753525956634
O	33.528357162256206	-21.34009284052732	-19.365414138194684
O	34.13262381941633	-22.434037819793637	-19.09323616852416
O	35.605510351444785	-22.327627414775662	-19.462889396371686
O	35.85105535022296	-21.59841755114575	-18.20196051806067
O	35.748545524377114	-22.332642592784993	-17.163444030657033
O	34.59480781601422	-23.133637309518473	-17.036262361309948
O	34.98073819482354	-24.228761332461204	-16.166418446932603
O	36.50227862476693	-24.555102847430696	-16.339442379675358
O	37.48624236235766	-23.855901934633803	-17.162080310724832
O	38.72968677299029	-24.549830493713177	-17.55021027603555
O	32.20595340367693	-27.000452245385716	-14.505308283313175
O	33.40106776456138	-27.058236222230352	-13.644836501633714
O	33.610755868148495	-28.52200754890585	-13.446872190257496
O	34.606933024591946	-26.62872355146666	-14.165978665872661
O	32.357167161571866	-29.058750888146136	-13.322445036930247
