87

O	-5.126576711295082	-1.8980765763934426	-1.0584284805901638
O	0.011979248704918177	0.8303664077065573	4.569601947409836
O	-2.876974521295082	0.9855126256065573	4.211020597409837
O	-1.5608798582950818	0.5120505276065573	4.054691967409837
O	-2.731517611295082	-1.8969072463934429	-0.896579076590164
O	1.315075898704918	1.4280517936065573	-1.163796910590164
O	-1.296089235295082	-0.5821477263934427	4.915243267409837
O	-3.6601383612950817	-0.15832625639344267	-1.9305175525901639
O	0.41937981870491825	0.5182914316065573	-1.0321413725901638
O	-1.5265845602950818	-1.4640544063934426	-1.319162599590164
O	-2.4336708612950817	0.42741030160655735	-1.923390132590164
O	-0.05448954129508188	-0.9732301163934427	0.8853900974098361
O	-1.3957862542950819	0.8222361310065573	0.37746669940983607
O	-0.49974206329508186	-0.8384926563934427	2.159818527409836
O	-2.2303927012950817	0.5370687086065573	1.4187351574098361
O	0.9668364987049183	0.6333196256065573	-3.027138762590164
O	-3.829039491295082	-1.1459080563934425	-1.0126982025901639
O	-1.402334236295082	-0.38339426639344265	-2.224451332590164
O	-0.23819630229508182	0.1079901686065573	0.06417886640983611
O	-1.498543684295082	0.025741068606557338	2.426535177409836
O	-0.05079993129508176	0.19373953360655738	-2.234337542590164
O	2.011892288704918	0.9141784772065573	-2.1272571725901637
O	3.421128568704918	1.4173354246065575	-2.319894262590164
O	3.328381578704918	2.1508743236065575	-3.410277552590164
O	4.207968888704918	0.3586368336065573	-2.137777592590164
O	3.8640362587049184	2.1912837136065573	-1.2779758225901638
O	8.071832758704918	-7.767201236393442	6.1148836774098365
O	8.45073766870492	-2.755421636393443	4.932288147409836
O	10.335254608704918	-2.3838986063934424	8.196749037409836
O	13.169005408704919	-0.5692698163934427	6.439954747409836
O	10.77639310870492	1.7165954406065573	4.525984507409836
O	8.96988870870492	2.6717185336065574	7.769262847409837
O	11.453228408704918	4.7618484136065575	-6.7840581625901635
O	13.39203410870492	-0.0510629373934427	-7.786724052590164
O	9.964603008704918	0.09099037860655734	-6.122915532590164
O	8.384317068704918	0.3484841006065573	-9.560714112590164
O	10.69698170870492	-5.0017014963934425	-8.359637662590163
O	6.975467528704917	-5.647980296393443	-8.490061322590165
O	4.257146418704918	-10.303201576393443	-10.431902972590164
O	-2.6377621812950816	5.443018883606557	10.359638927409836
O	-5.263939741295082	8.165560083606557	10.835627127409836
O	-6.824865681295082	7.6576638236065575	7.4382296574098365
O	-11.37666249129508	2.8525622436065574	-7.772811472590163
O	-12.112234191295082	0.6732121386065573	-13.079090772590165
O	0.17153746870491826	11.939075723606557	-9.605152712590165
O	-2.131837501295082	12.340401123606558	-6.624752972590164
O	-2.6469655312950815	8.623809023606556	-6.2507725325901635
O	1.0674773487049183	7.878570733606558	-6.128408922590164
O	2.335866438704918	10.906073723606557	-4.225973092590164
O	-0.4921381332950818	11.501257123606557	-1.762703762590164
O	-2.775780061295082	8.417611483606557	-1.665306312590164
O	-0.3532608112950818	5.571797243606557	-1.908791112590164
O	2.1720084387049186	7.764630653606558	0.018607862409836085
O	-0.13581961429508183	8.021144263606557	2.997269647409836
O	-1.2736544182950817	4.511328783606557	2.674428647409836
O	2.2890419487049183	3.0332460936065573	2.575646647409836
O	3.4777345787049176	4.876462093606557	5.833795367409836
O	6.785085128704918	4.9144433936065575	4.054194837409836
O	7.2145472487049185	8.292082043606557	-3.523059022590164
O	7.531416398704917	9.811773263606558	-6.978178502590164
O	-10.16251603129508	-3.5218555763934427	-2.667910902590164
O	-12.34285439129508	-1.7102271163934428	1.900407847409836
O	-15.765063991295081	-1.3652171663934427	3.497041327409836
O	-14.302168191295081	-1.5123631263934427	7.0260687674098365
O	-13.064347091295081	2.0446424236065575	6.259373397409837
O	-9.46147729129508	-2.751327566393443	7.273535167409836
O	-7.410647201295082	-5.777532066393443	8.520199477409836
O	2.818909458704918	-13.426564876393442	-4.8567511725901635
O	-10.08238179129508	-8.445436946393443	6.403196867409837
O	-5.227046951295082	-10.814301376393443	8.813311297409836
O	1.5267950887049182	-4.775864056393442	9.939560727409836
O	-0.8246609502950818	-0.2987857063934427	10.005189227409836
O	-4.287008771295082	-0.4568860763934426	8.399458047409835
O	-3.586079131295082	-3.8077157963934427	6.319197217409837
O	-1.852268898295082	-7.088781876393442	6.692505027409837
O	0.9048219287049182	-8.457474686393443	4.4748887074098365
O	-1.2998349762950818	-10.258862776393443	1.9732023274098363
O	-3.3445090312950816	-7.160567376393443	1.090562677409836
O	-0.21070896629508185	-5.080267036393442	0.41766588040983604
O	1.7617705187049182	-7.611685496393443	-1.522039082590164
O	-1.1651002322950819	-8.532756096393442	-3.7844120025901637
O	-2.394803271295082	-4.963230966393443	-3.956058612590164
O	0.8134973187049181	-2.8936244063934424	-4.579051822590164
O	1.6245314687049184	-4.734766546393442	-7.921818922590163
O	-1.8986921972950817	-4.389625236393442	-9.444275942590165
O	-1.9898365872950818	-0.8037956063934426	-8.226315622590164
O	1.3049950087049182	0.28924993060655735	-9.752276582590165
