85

O	-6.101340852904762	3.0371737455396826	-1.8310710665396825
O	-6.083360932904762	4.236721795539682	-2.1276322565396826
O	-4.975768002904762	2.4306667355396825	-1.1494822915396825
O	-7.082158822904762	2.2415529355396826	-2.3448291865396826
O	-5.123709332904762	2.5500596055396825	0.31269035046031746
O	-3.792816142904762	2.8134461455396824	0.9281318934603175
O	-3.334718472904762	1.6158082935396827	1.6478007434603175
O	-2.320684212904762	0.9694174078396826	1.1291218634603175
O	-2.457513492904762	0.5785696945396825	-0.32249132253968255
O	-1.1701911664047617	-0.1225138344603175	-0.6599681075396826
O	-0.05401041290476183	-0.2681725344603173	-0.05209389553968252
O	-0.46620292190476176	0.18193709153968263	1.2615235734603174
O	0.43378422709523834	1.3245623365396826	1.6335437734603175
O	0.4735446170952382	1.3611275655396826	2.9507881934603173
O	0.03402644709523828	0.08129201553968257	3.5181140734603176
O	0.2915808170952383	-1.0929557844603175	2.6737141034603176
O	1.5429461870952383	-1.4441086344603171	2.7921508834603173
O	2.5558038170952386	-0.5849760744603173	2.0808609734603176
O	2.346787637095238	-1.1715308444603174	0.7884914134603174
O	3.779051317095238	-1.5379829444603175	-0.0975449085396825
O	4.671457747095238	-2.5021364144603173	-0.5446507028396825
O	5.691587057095238	-2.500483344460317	-1.5772826065396826
O	-11.412677022904761	8.079106545539682	2.1190517734603174
O	-14.422190322904761	4.541110735539682	0.3305316584603175
O	-8.515720442904762	1.5563446555396827	-12.619266546539682
O	-9.115587202904761	4.954100115539683	-11.104289446539683
O	-7.468151982904762	4.037625155539683	-7.774939156539682
O	-4.487370172904762	2.7539204155396826	-9.736275466539682
O	-4.057149522904762	5.724665785539683	-12.095356846539683
O	-1.9119256979047616	8.158522735539682	-7.813844196539682
O	0.5968748470952383	7.462447535539683	-10.629288146539682
O	5.910352567095238	9.264312855539682	-8.242421146539682
O	8.890156567095238	10.194210545539683	-10.379613406539683
O	-0.6914742709047618	-9.102438514460317	9.618640253460317
O	2.2457420570952387	-7.500632414460318	11.479744653460317
O	4.242567617095238	-6.624133184460317	6.575431223460317
O	8.621820267095238	-5.437138624460317	3.1706338634603175
O	12.810118377095238	-4.423612994460317	-0.6540866675396826
O	13.918170577095237	-2.583224264460317	2.5058034934603173
O	10.678809377095238	-4.244289634460317	-5.631950996539683
O	8.736863347095237	-7.443174514460317	-5.251089026539683
O	2.3903949370952384	-12.236057914460318	-3.5771305465396823
O	1.1197397370952384	-9.213808114460317	-5.553844056539683
O	-2.399839802904762	-10.643059214460317	-5.448946906539682
O	-2.479233982904762	-11.249101114460318	-1.7164537365396826
O	-0.9751318379047618	-7.8896939344603165	-0.9350651695396826
O	-3.549990882904762	-5.960567574460318	-2.9342096265396824
O	-6.654640072904762	-8.026736554460317	-2.2758274065396824
O	-6.184374472904762	-9.124325014460318	1.3312054934603175
O	-3.4396895329047616	-7.072879294460317	2.9157164634603174
O	-4.209484492904762	-3.6990392944603174	1.5699041234603173
O	-7.764322222904762	-4.381458824460317	1.4842622734603175
O	-7.658352192904762	-4.839238074460317	5.263733983460318
O	-5.473654392904762	-1.8220348644603175	5.909498593460317
O	-7.455877102904762	0.4742911525396826	3.7425463634603173
O	-10.731738722904762	-0.2559320144603173	5.534895013460318
O	-12.295427022904763	0.3206395555396826	2.1588769134603174
O	-5.334398602904762	-7.229135444460317	-8.816191596539683
O	12.467470677095237	2.130193505539683	-3.7668289265396826
O	8.728469167095238	4.854126175539682	1.7303070534603173
O	7.1761107470952386	5.701496465539683	6.684479583460318
O	7.0228280470952384	1.9129105455396824	6.876626903460318
O	8.747710967095237	1.5856096005396827	10.229553953460316
O	5.582251127095238	0.25997471453968257	11.830684853460317
O	7.130036577095238	-0.8527529044603174	15.104797253460317
O	3.678897067095238	9.878539255539684	11.153868553460317
O	-2.948441522904762	5.483869375539682	10.271494753460317
O	-3.6863332629047614	10.988831685539683	6.505268383460317
O	-0.016156052904761742	11.643783185539682	5.862296613460318
O	0.9705568370952384	7.988424675539683	6.1613993234603175
O	-1.7981953769047618	6.941458795539683	3.718571523460317
O	-1.2848321469047617	9.621254335539684	1.0840625634603174
O	2.516770807095238	9.237205345539683	0.9828185334603174
O	2.3167123970952384	5.584086045539682	1.3441840234603175
O	-0.3320930639047618	4.700865255539682	-1.2635792455396824
O	1.501672817095238	5.7859688055396825	-4.251794906539683
O	4.860616407095238	4.168843535539683	-3.4330795165396824
O	2.9927708570952376	1.0083329615396825	-2.6460954465396824
O	0.9411339270952384	0.6222159825396826	-5.724789556539683
O	3.9095973870952383	1.5762826325396826	-7.953949776539682
O	6.002616397095238	-1.2564480544603174	-6.438213536539683
O	3.1375508570952384	-3.6968770844603176	-6.800861986539683
O	2.0271366570952383	-2.745212204460317	-10.341656396539683
O	-5.372095172904762	-10.350407114460317	8.919551423460318
O	-7.745971422904762	-9.292161914460317	11.640497953460317
