85

O	-0.9887431201206348	4.212674076963492	-0.8596808719158733
O	-1.8526400853206348	5.897384136963492	0.28372643808412673
O	-1.5908519183206349	4.564068296963492	0.1597146020841267
O	-1.415995984320635	3.8272589769634924	1.4080466960841267
O	-0.9542454781206349	2.447335466963492	1.0416742060841266
O	-2.260509495320635	1.8060337769634924	0.6848649580841266
O	-2.779560905320635	1.4577415029634921	2.060212316084127
O	-2.1944018953206346	0.36161456396349223	2.477949636084127
O	-0.9437200136206348	-0.1185895750365078	2.035986646084127
O	-0.8946384173206349	-1.4941394530365075	2.340409856084127
O	-0.1215766353206349	-2.4850207230365076	2.066769276084127
O	0.9502356446793652	-2.2157848830365077	1.1922482060841266
O	1.590641894679365	-3.468936423036508	0.8857433460841266
O	1.3732905046793653	-3.839742693036508	-0.3302946727158733
O	0.9145470346793652	-2.8174819030365077	-1.2819013129158734
O	-0.32489829232063483	-2.4453337730365075	-0.6315647239158733
O	-0.7917517053206349	-1.2617426030365078	-0.8130400169158734
O	0.029922224679365117	-0.1038250840365077	-0.9224583709158733
O	1.130593734679365	-0.8040901930365077	-1.5967282339158733
O	0.8689840346793651	-0.6603660930365077	-2.9398164639158733
O	1.3700954046793652	0.48075142586349223	-3.577463963915873
O	2.230108704679365	0.008401377963492274	-4.759319693915874
O	0.6606513746793652	-11.428593463036508	4.320846106084127
O	-0.6618723303206349	-14.949340463036506	5.096930976084127
O	0.5537165746793651	-16.17365636303651	1.7001398260841267
O	-0.9532278681206349	-13.140867263036506	-0.1207832999158733
O	-4.349345265320634	-13.753534463036507	1.5311920260841267
O	4.163915044679365	-6.869262363036508	-8.727208263915873
O	7.785763534679365	-6.0090265630365085	-9.567616483915872
O	8.764254474679365	-7.679192333036508	-6.3235271139158735
O	6.127625914679365	-5.9282045030365085	-4.297168173915874
O	7.312751264679365	-2.6220044830365077	-5.769720373915874
O	11.067514364679365	-3.115315143036508	-5.228203193915873
O	11.162169064679365	-5.0519335030365085	-1.9270170939158733
O	9.994713064679365	-1.9656777030365076	-0.08407032591587332
O	12.101033964679365	0.7030552209634923	-1.8421012939158734
O	12.837879564679366	1.4636223259634922	3.4822497760841267
O	12.552808264679365	5.089331436963492	2.373748026084127
O	-9.019050115320635	8.198320056963492	1.0904868960841267
O	-4.830649715320635	11.935496836963493	0.7005114260841265
O	-0.6356359433206349	15.796185336963493	-0.1609211639158733
O	2.727308954679365	13.905386136963493	-3.989794053915873
O	-0.0464957423206348	13.019247836963492	-6.3747076339158735
O	-2.450538605320635	6.381878866963492	-9.673746273915873
O	-4.179422505320635	3.5292484369634924	-11.514164423915872
O	-7.299735385320635	3.5592152569634923	-9.368433283915873
O	-5.3379773753206345	3.8515125169634925	-6.135063203915873
O	-3.251377185320635	0.8604530259634923	-6.9361131639158735
O	-5.676082845320635	-1.4204511530365078	-8.642398753915872
O	-8.884997325320635	-0.6793593230365077	-6.774126933915873
O	-8.106811415320635	1.2083299089634922	-3.5789620439158734
O	-5.052686195320635	-0.5086254030365077	-2.2792162339158732
O	-6.299141705320634	-3.7503447730365074	-3.863708183915873
O	-9.304733165320634	-3.630051803036508	-1.6052652739158733
O	-7.5187068853206345	-2.618864363036508	1.4868538960841267
O	-4.956946195320635	-5.375572173036508	1.1390864760841266
O	-7.312063605320635	-8.231621233036508	0.9273720560841265
O	-4.708595495320635	-9.822542963036508	-1.3283943839158734
O	-2.119971545320635	-5.661027113036508	-8.127926103915874
O	-0.8822648803206349	-3.8619551730365074	-11.244282623915872
O	-0.08290965332063482	-0.2735915100365077	-12.182838723915873
O	2.870305234679365	8.933759626963493	6.751307526084126
O	-0.4719739943206348	7.0780179669634915	10.342950876084128
O	-3.135098365320635	8.048367696963492	7.802294296084127
O	-8.071573315320634	7.0692042369634915	9.697416676084128
O	-10.882020535320635	8.801810536963492	11.571834576084127
O	-1.693483245320635	2.3143768769634923	15.417750376084127
O	-5.2253037853206346	-2.640675883036508	10.212363976084127
O	-2.516755735320635	-4.096955303036508	12.415011776084127
O	1.0382368846793653	-4.938271763036508	11.322720376084128
O	2.6326743446793652	-1.5877355630365075	12.168217076084128
O	0.19142020467936516	0.4674867682634922	10.069630576084128
O	0.8053137446793652	-1.7745931030365076	7.124059316084127
O	4.604259644679365	-1.9973450230365075	7.2396916060841265
O	5.026314094679365	1.745201976963492	7.699213466084127
O	2.201846644679365	2.677670776963492	5.293222466084126
O	3.1284161946793647	0.5855060899634923	2.326279746084127
O	6.517146574679365	1.9695288569634921	1.5762725660841266
O	5.445563414679365	5.645621606963492	1.8159984160841265
O	2.3900039746793653	4.895859206963492	-0.2733002229158733
O	4.205256194679365	3.2817083369634923	-3.1714413439158733
O	6.993331554679365	5.7759145569634915	-3.229787053915873
O	4.441800344679365	8.584453666963492	-3.6911132639158732
O	2.503480784679365	6.634656776963492	-6.3357752039158735
O	-16.890027335320635	-2.4542365330365077	-0.3267580102158733
