81

O	-3.1785336356063487	4.57530973843492	2.4591355568349202
O	2.246613744393651	-2.1211298915650802	-0.6289135711650796
O	-2.876740165606349	3.21618080843492	2.48141921683492
O	1.9314869443936513	-3.8888295615650796	0.6062736748349205
O	-2.1018742626063487	2.7110252784349202	1.5023495368349205
O	-1.2991593888063486	3.65890133843492	0.9405180928349204
O	-1.8154508176063486	4.95079626843492	0.7093893128349205
O	-2.4659503556063487	5.508993438434921	1.7632664168349204
O	-1.6025016696063488	1.3860942064349202	1.2899360668349205
O	-1.0357151906063486	1.00382480064492	0.1227687178349204
O	-0.9796929826063487	-0.3461544215650799	-0.3772766861650796
O	-0.47801733460634865	-1.2094519915650799	0.5503617108349204
O	-1.2414507983063487	-0.9863182715650799	1.7321406668349204
O	-1.8123270656063486	0.25026161243492007	2.0496311668349203
O	0.06497697439365124	-2.48218534156508	0.0527215625349204
O	-0.1393656956063487	-2.87693922156508	-1.3697621731650795
O	1.5256260243936515	-2.61253178156508	0.2947414988349204
O	-2.4879146756063486	0.66096202043492	3.16193320683492
O	-0.47549642560634875	-10.47142496156508	9.07392293683492
O	1.5242890443936514	-12.11250406156508	4.18673383683492
O	-1.7707423386063488	-10.184079861565081	4.0855327868349205
O	-3.568933415606349	-13.48974456156508	4.64133494683492
O	-1.8702676256063486	-14.98236006156508	1.5882393068349203
O	-2.6870286556063485	-11.89943376156508	-0.5458964031650796
O	-6.378550295606349	-12.12326846156508	0.41227427183492044
O	4.479172614393652	-6.48976852156508	-8.01028133316508
O	8.222915044393652	-5.9837669215650795	-8.092792443165079
O	8.378067924393651	-7.616375791565079	-4.70776963316508
O	5.523483474393651	-5.52411020156508	-3.2570149331650797
O	7.308338124393652	-2.45340518156508	-4.54470368316508
O	10.831223194393651	-3.2670765915650803	-3.29591688316508
O	10.10259339439365	-5.06432587156508	-0.0062957361650796025
O	8.85966819439365	-1.8255543815650799	1.4807080468349203
O	11.545903094393651	0.54412378143492	0.12093918183492039
O	13.92793879439365	0.006541578434920092	2.99291441683492
O	11.37277429439365	1.4580227314349201	5.4535611868349205
O	11.69031239439365	5.0497411384349205	4.22964744683492
O	-15.76162210560635	1.57976638143492	0.05228208823492039
O	0.46372535439365126	16.87131183843492	-1.0321004931650797
O	1.9701738643936513	13.812764338434919	-6.95894683316508
O	-0.47918168660634874	7.30536326843492	-10.46981978316508
O	-2.078236871606349	4.54594006843492	-12.53934288316508
O	-5.5269207856063485	4.93747898843492	-11.05242998316508
O	-4.206659745606348	5.19189616843492	-7.4770354631650795
O	-2.234955787606349	1.96383675543492	-7.76239540316508
O	-4.532745145606349	-0.12034366156508003	-9.92248399316508
O	-7.953814485606348	0.95755098843492	-8.72945715316508
O	-7.611867975606349	2.88976499843492	-5.48086249316508
O	-4.917805295606349	1.00504836303492	-3.54054013316508
O	-6.206538635606349	-2.17013927156508	-5.29331160316508
O	-9.613844935606348	-1.7400820815650802	-3.6860670031650797
O	-8.13082353560635	-0.68339356156508	-0.3122377701650796
O	-5.802714425606348	-3.6832603015650798	-0.1809207181650796
O	-8.488248295606349	-6.322315581565079	-0.7559356951650796
O	-5.759927645606349	-8.271900581565081	-2.49384196316508
O	-1.5819104806063486	-4.62532190156508	-8.63120497316508
O	0.37204530439365135	-3.0938757915650803	-11.509554783165079
O	1.6893897643936513	0.3572493324349201	-12.34622518316508
O	1.8122199643936514	9.95755631843492	6.57326178683492
O	-4.338519945606349	9.68769865843492	6.39955151683492
O	-9.61346408560635	9.208973758434919	7.26996270683492
O	-12.55106930560635	11.27246363843492	8.57942631683492
O	8.047258304393651	-0.23553703156507988	10.87326301683492
O	-4.986404775606349	4.14342906843492	14.12853231683492
O	-7.8544166456063484	-0.60657812156508	8.42913776683492
O	-5.829435535606349	-2.27874721156508	11.14979001683492
O	-2.2473430096063485	-3.4807168715650803	10.821623716834921
O	-0.5708719916063487	-0.26730242156508	11.89131691683492
O	-2.3360836656063486	1.91927140443492	9.21100089683492
O	-1.3672979154063487	-0.47630790156507985	6.47658751683492
O	2.2555408343936514	-1.10464080156508	7.468944896834921
O	2.989223824393651	2.60315376843492	8.01840292683492
O	0.8039218543936513	3.72969935843492	5.12090753683492
O	1.8807543743936512	1.4364029764349202	2.3332941268349203
O	5.590024904393651	2.48224598843492	2.32288316683492
O	4.860432734393651	6.249807178434921	2.27570527683492
O	2.1199713743936512	5.66581742843492	-0.29265129816507957
O	4.310551614393651	3.67137023843492	-2.76709336316508
O	7.341805104393652	5.944279518434921	-2.36599394316508
O	5.332520474393651	9.01676219843492	-3.35160830316508
O	3.727504234393651	7.18233006843492	-6.248950613165079
