83

O	0.8755485283457145	2.186123138187302	-2.6403219032936507
O	-2.3108770016542852	-2.7061039418126978	2.0180850167063493
O	-3.2363072216542856	-1.6216346718126977	2.286001716706349
O	-1.4701383126542855	-2.6783133618126977	3.172653456706349
O	-0.8532112436542855	1.794906008187302	-1.0673875512936508
O	-1.5283110976542855	0.939915121187302	-0.1497441732936509
O	0.7373570783457146	0.128771248187302	-1.087831494293651
O	0.5207997083457145	-2.157537951812698	-0.3755567272936509
O	1.7631515883457145	-2.791773151812698	-0.5842110242936509
O	0.20959713834571447	1.217310936187302	-1.790929973293651
O	-2.5634926916542855	-0.37164545881269795	2.007813416706349
O	-0.7311330646542855	-1.4713616818126978	2.959886976706349
O	0.17108498834571462	-0.826216421812698	-0.3648713340936509
O	-0.7716488266542855	-0.11651257181269803	0.2741831147063491
O	-1.2720915299542854	-0.395490885812698	2.349788716706349
O	-0.3764217396542855	0.18994756418730202	1.548350746706349
O	1.7493292183457143	-4.009319031812698	-0.1886682902936509
O	2.7384005083457144	-3.118324961812698	-1.4681462232936509
O	0.9753525783457144	-1.6996838818126978	2.850843796706349
O	-3.1993239016542856	0.788449255187302	1.898910226706349
O	-8.882535051654285	8.548606468187302	3.041172156706349
O	-12.505376811654287	9.681064848187303	3.300551236706349
O	-10.390548021654286	8.952813138187302	-1.708485843293651
O	-1.0689012826542854	9.966890938187303	-8.702458223293652
O	1.9536444683457144	12.241443828187302	-8.68895589329365
O	0.6871293083457146	13.697621228187302	-5.456105243293651
O	0.03558362834571449	10.268045388187302	-3.887206683293651
O	3.5554845183457147	9.278929168187302	-4.880981373293651
O	5.367221188345715	12.390239228187303	-3.6221294732936506
O	4.662435788345714	10.215668728187303	1.214461876706349
O	8.330928438345715	10.383381638187302	0.10698002970634912
O	8.454777738345715	9.820430748187302	5.493066076706349
O	11.299394688345714	7.461576388187302	4.576917346706349
O	-10.385837291654287	-9.790827471812698	-0.3862230657936509
O	0.7329456983457145	-10.875692271812698	-0.8469630582936509
O	6.259533648345714	-9.938745271812698	-0.1559472292936509
O	11.965536188345716	-9.096589511812697	0.07905672670634911
O	5.048899558345714	-7.087122431812698	-11.083628953293651
O	5.310395918345715	-3.3665413818126977	-10.255617203293651
O	2.3338276583457147	-2.6648588018126977	-12.510465653293652
O	0.07579712834571461	-5.313212311812698	-11.025626853293652
O	0.9513899783457145	-4.399174961812698	-7.4563835632936515
O	0.1000267983457146	-0.747241311812698	-7.942365583293651
O	-2.8468208116542852	-0.9911089018126981	-10.219282043293651
O	-4.5806885016542855	-4.130984951812699	-9.015155173293651
O	-3.2379319516542853	-5.106517771812698	-5.6356802832936514
O	-2.9074630316542853	-1.8165656518126978	-3.849784563293651
O	-5.775031421654285	-0.530851191812698	-5.786695023293651
O	-8.010281451654286	-3.197227951812698	-4.278162333293651
O	-6.706762521654285	-2.7802326018126977	-0.8961047322936508
O	-6.9701372116542855	1.007141397187302	-0.840933058293651
O	-10.652738971654287	0.9618791181873021	-1.663277553293651
O	-9.874097101654286	4.191336118187302	-3.4517169032936508
O	2.0543279583457146	2.957930478187302	-12.570630953293652
O	13.741509288345714	-2.941646291812698	3.5043090067063494
O	7.615096168345715	-2.898267611812698	7.157342886706349
O	3.4840227683457146	-4.6819035918126986	9.923780746706349
O	3.065215078345714	-7.095654021812698	7.042606176706349
O	2.4598271483457146	-10.228548171812697	9.098126426706349
O	-1.0900016196542854	-10.480716971812697	7.71466524670635
O	-1.8506213426542855	-13.947005571812698	9.12157189670635
O	-6.032808441654286	-13.215114671812698	6.146939466706349
O	-1.8686415986542855	-3.169841701812698	14.138979846706349
O	-9.501679221654285	-4.326781041812699	6.119533116706349
O	-6.897954691654285	-2.187130791812698	8.038857796706349
O	-6.713831041654285	0.5599195913873021	10.592135746706349
O	-5.001695351654286	3.907847158187302	10.18120474670635
O	-1.6307270146542856	2.895906678187302	11.530892046706349
O	-1.1833319444342856	-0.005233524812698009	9.065128646706349
O	-1.9794889046542856	2.203701968187302	6.1119459367063484
O	0.07482942834571449	5.237405458187301	7.092818606706349
O	3.1706889983457147	3.1854426181873023	7.9879617567063494
O	2.6503361683457145	0.7680654791873021	5.160252796706349
O	2.0186252183457145	3.116028478187302	2.2372693467063494
O	5.338827258345715	4.915347198187302	2.354762166706349
O	7.527063448345715	1.751862078187302	2.626948686706349
O	5.4948975583457145	0.14325688218730204	-0.09356637129365089
O	5.715989818345714	2.9374992981873023	-2.6680030132936507
O	9.388647488345715	3.472462768187302	-2.002414233293651
O	10.143279088345714	-0.16522847681269803	-2.8045420432936505
O	7.967447428345715	-0.06514926681269795	-5.944522653293651
O	-8.492084731654286	-9.978477971812698	-5.893998643293651
O	-11.997565311654284	-9.899550071812698	-4.536225073293651
