26

O	33.61174423749594	-21.664331809513786	-18.02909350565614
O	32.38530723125264	-21.396755426126177	-17.800701172214385
O	25.06596478372711	-21.3058610786099	-15.83612229576723
O	25.873659277633273	-21.943193061340413	-16.902597296647507
O	34.04136790434065	-22.310577675124254	-16.906671852572728
O	31.85951164551537	-22.196629982099	-16.922116695297568
O	24.999166897300356	-23.093644711938108	-17.229291020291306
O	32.93444971171107	-22.605614750128424	-16.173168572428484
O	25.33991524908014	-20.937383878993664	-18.13771489331726
O	34.31082497952498	-20.823224910769078	-19.057592612070408
O	32.5568623448343	-23.318841336843068	-14.92933683901422
O	32.06726433630521	-24.623265070087648	-14.968593343231596
O	32.36226401069104	-25.17215107382409	-13.683421214959308
O	31.603144800097027	-24.69470773034063	-12.659403017152023
O	31.209574626524628	-23.444789493222554	-12.957386934419375
O	31.5012357151574	-22.75703199331051	-14.130386812326428
O	31.934060434675715	-25.038557659795895	-11.265707066184746
O	30.601750982642344	-22.345360616204744	-16.38143029367214
O	29.68908086475998	-23.429759030520074	-16.266696594921676
O	28.280126510135112	-23.412600686954985	-16.444858885490984
O	27.526857999454933	-22.296202064825387	-16.618576534461045
O	28.295761785812346	-21.28217384218742	-16.203082460152515
O	29.67273085997643	-21.35566414249623	-15.937878926221615
O	34.565137483572805	-19.653585397604125	-18.44097925761644
O	35.31707023879537	-21.43479171826277	-19.68188232034541
O	33.456106462866245	-20.406473248417395	-20.071333180079893
