76

O	2.8093460105803034	-2.18023972495909	-0.10793202434393903
O	4.076293520580303	-1.6361354049590902	-0.329729210343939
O	2.2743663805803034	-2.72986570495909	1.1164184136560609
O	1.6645058805803035	-2.0249109549590902	-0.831018825343939
O	1.3529654105803033	-3.71998738495909	0.726910210656061
O	2.1341750205803036	-1.47303018495909	-2.045267195343939
O	2.1232503205803033	-4.40194652495909	-0.23192563334393904
O	3.5640545705803035	-4.404640434959091	0.15284942035606094
O	3.283814390580303	-2.17331208495909	-2.352637895343939
O	4.476710030580303	-4.529836114959091	-0.8487763553439389
O	-11.474674869419697	2.15410828504091	3.897297794656061
O	-14.188734469419698	1.7466149050409097	6.506703204656061
O	-9.918610309419698	4.96775536504091	7.76569735465606
O	-10.229966549419698	1.85468852504091	9.95361733465606
O	-2.006545199419697	12.70342317504091	3.9598348746560608
O	-1.9715066794196967	15.21326187504091	1.1288373576560609
O	-5.3339165794196965	13.88301017504091	0.07749387065606095
O	-4.239083279419697	10.25729607504091	0.29135010435606096
O	-1.2192331864196966	11.16805777504091	-1.8281633353439388
O	-3.0425933094196966	13.12650507504091	-4.523063865343939
O	-4.568143919419697	8.32128351504091	-6.3131722553439396
O	-2.191002719419697	10.19111537504091	-8.67667656534394
O	-4.635730069419696	6.4558566350409095	-11.73180510534394
O	-1.1010021134196966	6.13118584504091	-13.09818910534394
O	1.8498329305803036	-9.452204024959089	9.919487444656061
O	8.611756200580302	-6.776783744959091	1.503221964656061
O	10.437791130580303	-4.96661149495909	-3.479187455343939
O	12.696975930580303	-2.85902644495909	-8.387570185343938
O	10.963087430580302	5.74942361504091	1.8631712446560609
O	10.212438530580302	6.860159435040909	5.42977460465606
O	10.029248730580303	3.36274033504091	6.8740594246560605
O	7.977300980580304	2.05981904504091	4.002420214656061
O	5.328401480580303	4.755409595040909	4.33421759465606
O	5.215829960580304	5.171187355040909	8.08190750465606
O	5.755468240580304	1.6136811450409099	9.276125724656062
O	5.282516780580304	-0.7876296909590901	6.3663837146560605
O	2.3192130905803032	0.6233835710409099	4.458836224656061
O	1.0107433805803034	1.9063446950409098	7.82442966465606
O	0.7938699605803033	-1.6424891749590902	9.13561677465606
O	-0.5864494687196967	-3.01366769495909	5.864747474656061
O	-3.2970383494196964	-0.38944766495909017	5.67988744465606
O	-4.718121449419697	-0.9850039599590901	9.16974139465606
O	-5.525267409419697	2.70110010504091	9.104393054656061
O	0.5344928505803034	8.09946092504091	7.579719784656061
O	6.344171200580304	10.92339647504091	4.78823257465606
O	7.624752560580304	-0.02049409195909016	-12.736562205343938
O	2.5215806805803034	-4.02728801495909	-9.796290485343938
O	0.14589129058030326	-8.20368515495909	-7.724108355343939
O	3.0963479005803034	-8.16102863495909	-5.2987196153439395
O	3.7675617005803037	-11.91473942495909	-5.55818337534394
O	2.7900587405803035	-12.29576252495909	-1.906570375343939
O	3.9763401205803035	-15.88756492495909	-1.526717625343939
O	2.8677430705803033	-14.70437822495909	3.369693834656061
O	-2.5707608194196965	-13.29551782495909	1.053980133656061
O	-5.976372489419696	-11.402674224959089	-6.21748933534394
O	-5.103740319419696	-14.41690492495909	-4.048198675343939
O	-4.714271269419696	-9.24017143495909	4.648816814656061
O	-5.929339819419696	-8.23218380495909	1.1583647696560608
O	-9.085224879419698	-7.825698504959091	-0.8610453653439389
O	-10.239929699419697	-4.64240414495909	-2.584968445343939
O	-8.563351389419697	-5.24861865495909	-5.92538882534394
O	-5.095683149419696	-5.747548354959091	-4.45596408534394
O	-5.393424969419697	-2.49627259495909	-2.434581955343939
O	-6.820605039419696	-0.27563647565909016	-5.153095135343939
O	-4.290077389419697	-1.4364931349590901	-7.76602393534394
O	-1.3924706974196965	-1.6421585749590901	-5.214208085343939
O	-1.7312457494196969	1.7093378250409097	-3.501676975343939
O	-1.3012860694196968	3.9378364350409103	-6.57546152534394
O	1.7968125705803035	2.08221817504091	-7.91427503534394
O	3.2388166305803034	1.9707095750409096	-4.394601895343939
O	2.8758092805803033	5.74690209504091	-3.682551075343939
O	4.0692642605803035	6.76382889504091	-7.12059478534394
O	7.298147730580303	4.792275565040909	-6.67935107534394
O	7.7846404205803035	6.12623158504091	-3.175072245343939
O	5.920086350580304	-5.6717469049590905	11.59229479465606
O	3.3184115605803033	-7.46777459495909	13.629172294656062
