24

O	34.436171158318004	-24.06817201367468	-16.309526552496838
O	29.385753204849276	-23.731231167197382	-15.945981676327367
O	31.13739011357392	-21.473345436428872	-16.10053387435784
O	33.128524736917704	-22.882055686498937	-15.936940654518994
O	31.97188149351848	-21.224228415928124	-17.208038477559946
O	30.854962168511808	-22.756556674546076	-15.637468097340118
O	31.927451066458246	-23.584825030197536	-15.950791537648131
O	33.06981395230986	-21.984346456097377	-17.002734209409105
O	32.409756000941954	-19.877436678828385	-17.567979089131224
O	31.95828818475114	-24.633782756700178	-15.115807047131621
O	34.23057397059072	-21.556145491337126	-17.44844710485337
O	33.42993786446774	-19.555756953913086	-18.293178777887718
O	34.01650258288751	-18.210971478614162	-18.52592572596773
O	34.403987604301314	-20.538511447374805	-18.375233345836275
O	33.988094080484856	-21.443996308958088	-19.554643945622267
O	34.92959853620382	-17.828321703217437	-17.770497604809286
O	34.41592843724093	-17.993005124574605	-19.8552717710838
O	32.25373290763701	-24.30602371826964	-13.751897280209306
O	31.431768607392065	-25.188779879749607	-12.869927932794013
O	30.039239289260188	-24.66880850869054	-12.819010436854995
O	31.33285496809356	-26.47927780362116	-13.632746091877364
O	35.08936093713733	-22.181276320508456	-19.56890973031398
O	33.50789166657448	-20.643502547009014	-20.449905289556213
O	33.04125988944592	-22.3597566792032	-19.222762041253286
