20

O	36.28099390260336	-23.426409171969194	-17.506716586080543
O	29.92868275957489	-25.779431642471113	-14.360389062078257
O	29.348940652346364	-24.624570556267003	-15.019531693441278
O	30.031076327633592	-25.335116399085273	-13.006601167363064
O	33.96434092011382	-23.03208336152572	-17.20108644729675
O	32.70542142537985	-23.39363487098642	-16.641407243916287
O	34.792783920276726	-24.657144771146907	-15.794250212805816
O	33.60395196281863	-26.43466407684767	-14.694911370137968
O	34.53888560476966	-27.175140108150927	-13.942034600321886
O	35.031919166279245	-23.920059918860684	-16.9592896681212
O	30.39248557951597	-23.641989984431895	-15.214699722286035
O	31.08280538595601	-24.369145032630005	-13.100919757825062
O	33.69301247987528	-25.196081505941137	-15.288892025212045
O	32.80355934892148	-24.229820623750893	-15.564627812816369
O	31.260233254663234	-23.604785347416	-14.199385752176273
O	32.56243390278112	-23.45502726549751	-14.46227614890771
O	33.979950715714715	-28.121454937664993	-13.285419709022209
O	35.68845580322699	-27.8945449657739	-13.947777966396913
O	32.45932453101068	-24.728322123586842	-12.125060366051729
O	30.261436442965284	-22.59028562251304	-16.01388996045412
