26

O	34.25939434812673	-21.27384101240577	-17.60180829196188
O	32.01166622324465	-21.400264809183938	-17.490270529387807
O	25.179231614389106	-21.78592149663656	-15.60541031223044
O	25.970885552414796	-21.789130667233618	-16.85469150453246
O	33.15750467930163	-21.62627075366921	-16.821195854166774
O	32.54319563933646	-20.679485499642396	-18.443957857002367
O	25.23487747887208	-22.86915763025953	-17.57606350184116
O	33.76694226885415	-20.57381033935129	-18.661098793018226
O	25.365472317400307	-20.419546778832057	-17.642856895895342
O	34.784491650562764	-20.075668484318555	-19.598853903318293
O	30.864572929601053	-21.720036771947044	-16.75835275548628
O	29.981615412650545	-22.824659228008567	-16.60088521998023
O	28.57371729967169	-22.964918494475665	-16.551772742943243
O	27.671960056034212	-21.965298426750728	-16.665102674378904
O	28.38972919120928	-20.882090744529098	-16.363844559179704
O	29.783743303584153	-20.869768720601378	-16.270012853338987
O	32.91402035834287	-22.78993463260447	-15.918623509120717
O	32.995066963545646	-22.66159820020529	-14.525874695306955
O	34.08742376334365	-23.14726143581439	-13.786476792477142
O	34.77150146179834	-24.21236839257041	-14.205441461567377
O	35.065841526465604	-23.936018041139956	-15.488819276139353
O	33.82768049829207	-23.749108662537868	-16.135929464013635
O	35.984828796787866	-25.371324890779675	-13.532511296118024
O	34.41160770650308	-19.37954879027337	-20.686827694387702
O	35.64167090548162	-21.075072045607914	-19.982725652412785
O	35.57637524924826	-19.225212595567537	-18.902416116976383
