66

O	34.07540852419048	-11.25015428930099	-16.48243563079641
O	34.818544274536684	-10.557290102611729	-15.280004277768303
O	34.747381545002604	-11.928282878618997	-14.585383952685005
O	34.63066743536404	-13.292183619170729	-15.409578216212866
O	36.196535531716826	-13.861969763633766	-16.5630945034569
O	35.914243028314836	-13.226194359882419	-17.865942815181594
O	35.385301707904674	-14.456295098772449	-18.336606525697892
O	36.78131500159818	-14.182477766466178	-18.096400661771085
O	37.77627398314591	-14.755930098674742	-17.219982531311665
O	37.40802971583208	-14.19890032574948	-15.950586928048981
O	39.16068701154906	-14.606120773965744	-17.397264470934218
O	39.9000404171592	-15.28027761423402	-16.38247207694014
O	39.46912972967178	-15.050666833524113	-15.151289551629038
O	38.28919100419461	-14.414333719339457	-14.978810943125652
O	41.03333965508619	-16.796773745168935	-14.980962676743818
O	35.90105951016811	-12.41994200973226	-19.081836167130625
O	34.507872993385185	-13.96784378425875	-19.469312783038642
O	37.427348065109705	-12.820392338998854	-17.553142958501592
O	33.476652339998395	-12.536963971335403	-16.826474718979014
O	35.140731668197205	-14.354967637064503	-16.019277788112582
O	34.77426372390771	-10.965819331017425	-17.442364436991543
O	33.8146955370054	-14.004575327366535	-14.815200044274295
O	40.90882800911052	-16.206631054261738	-16.205879879995592
O	40.114992322597054	-15.955449767461163	-14.338157127869305
O	35.60483831035609	-13.704426260033008	-20.02010075829763
O	33.805243273359466	-14.742189235229183	-20.312725228180966
O	38.576286744806566	-12.378689906007345	-17.9708089862388
O	39.40991888640552	-11.39531916731066	-17.293437522858852
O	39.424646958471094	-11.412132920015466	-15.895964433384968
O	38.20452580296326	-11.630656314029057	-15.410425537460197
O	37.3816880123253	-12.299882799554151	-16.33097119019407
O	32.54749595230089	-14.653213009137797	-17.34848258038223
O	38.95922494039076	-18.345107898979432	-16.813857196867176
O	38.628029413487994	-18.147610078220175	-15.51018186471147
O	37.60399436820358	-17.120887258884	-15.235014758608388
O	36.70795235520964	-17.057228008990712	-16.290352576204835
O	37.17048187046129	-16.560970638573746	-17.37601179413205
O	38.347728217057714	-17.402690629336586	-17.621893870429698
O	34.98564995802328	-16.83058549827286	-17.005016739988392
O	35.91340259406946	-16.47386072723559	-18.030245154771084
O	35.344302552407264	-19.39418543660172	-16.920742924385348
O	35.645035454316336	-20.594113197351955	-17.780434901487645
O	35.08381463870698	-21.850529009049303	-17.299156762100946
O	35.488025237133435	-23.12446784400336	-17.736975624797957
O	35.597406730043716	-23.19055246264542	-19.08175589396602
O	34.90402943427324	-22.169973723122148	-19.66238955709936
O	34.948796377327945	-20.907357535108112	-19.01781232492004
O	35.18205905292471	-17.30354774155719	-19.241293813910048
O	33.79319703059258	-17.621728310814078	-19.351259363320874
O	35.68184552580087	-18.036139486481705	-16.640476929681565
O	34.04218813168791	-19.467982806407836	-16.847442588076774
O	35.40189030569266	-24.820817771775793	-19.72365391369503
O	31.614871972305263	-17.01640907549771	-18.226086254377844
O	32.185913251480514	-15.713468968862639	-18.025103179659176
O	32.774789321927805	-13.264135541092706	-17.650590196663433
O	38.784031594651985	-10.781960831296185	-13.216479453192186
O	41.163472295105755	-9.736294950403561	-17.135431182475106
O	39.54620805517968	-9.011027127547521	-15.092074345270007
O	33.74024924773716	-16.889573752801066	-16.28197215478211
O	38.883312406839124	-20.996221343588598	-16.882561151673524
O	32.53286738090626	-17.88337456374223	-18.886052381882656
O	33.78715287124601	-16.59976393277693	-18.667616824281442
O	37.82832704309516	-11.155653903897317	-14.176408909638955
O	39.96495672715963	-10.195564986665852	-17.80215521781138
O	40.059621901983654	-10.310968833182962	-15.205127585198875
O	39.50145721198519	-19.70052759881035	-16.753673075533865
