85

O	-1.7939241299491524	-2.55097914848983	-0.46522197121355946
O	-0.6755307399491525	-0.8043173184898305	-0.09818700221355947
O	3.4603687260508478	4.10065465151017	1.9757528667864404
O	2.0962745360508475	3.9859387615101696	1.4772868867864406
O	-0.5281905069491525	-2.06358513848983	-0.6006950875135595
O	-1.6183653219491525	-0.9030442884898304	0.7919981467864406
O	1.8715538660508475	5.27185933151017	0.7883902367864405
O	-2.4884798039491525	-1.7219693584898306	0.35409305678644054
O	1.2349281960508476	4.213193561510169	2.8972321267864403
O	-3.7507671939491525	-1.9017525184898305	1.1389599567864406
O	0.5076720360508475	-0.10747618248983037	-0.10876933221355944
O	1.1720316460508475	0.7974808515101697	-0.9392306392135594
O	1.5883763460508473	2.09109911151017	-0.5448073192135594
O	1.5702900760508474	2.5319379615101694	0.7366783567864407
O	1.4207691960508475	1.4981720415101696	1.5902098067864405
O	1.0393285960508476	0.22757614551016958	1.1684019467864406
O	0.4519838860508476	-1.9832408984898302	-1.7384954632135594
O	1.7400866060508475	-2.46642033848983	-1.6714377742135595
O	2.2942458660508476	-3.4606615684898303	-2.4301387732135593
O	1.6282754560508477	-4.28972994848983	-3.2093572632135596
O	0.48785423605084755	-3.74313407848983	-3.5716542432135596
O	-0.02686883694915243	-2.80721754848983	-2.7511249632135595
O	2.3791566860508477	-5.76969146848983	-3.9827443432135596
O	-4.286656403949152	-0.6723902184898305	1.3480551467864403
O	-4.625599143949152	-2.5670191684898302	0.4032053667864405
O	-3.3848687939491526	-2.33052481848983	2.3525960167864404
O	1.8697342360508475	-0.21832536448983042	11.052385116786441
O	2.8746184160508474	3.4261735015101697	11.26328001678644
O	-2.5242649839491524	2.2091901215101695	11.31269961678644
O	-1.2108609219491524	4.103505091510169	8.18302893678644
O	-1.7981187319491525	7.32926845151017	10.181314316786441
O	-5.439194863949153	6.39644062151017	10.76731001678644
O	-5.947670033949152	5.44786155151017	7.09285935678644
O	-4.532438503949153	8.792744491510168	5.920417386786441
O	-13.000874103949151	-2.5863106684898307	6.400814786786441
O	-11.69689280394915	-3.91107201848983	3.0594459267864402
O	-9.960787213949153	-6.54355878848983	7.22857801678644
O	-7.270979383949152	-4.99664299848983	4.923060106786441
O	-7.428919643949152	-8.14931180848983	2.8324324867864403
O	-4.991096153949153	-8.928082878489832	8.206345706786442
O	-2.131742433949152	-9.40600911848983	5.81767311678644
O	2.3458802960508476	-13.01133286848983	6.33197637678644
O	1.9547247960508476	11.94095733151017	-3.9016989232135595
O	2.3462916760508477	9.99884771151017	-9.07884879321356
O	4.821018016050847	-11.765046468489832	-13.509568083213559
O	-7.3661271739491525	-6.77367320848983	-10.850183283213559
O	-10.070431733949153	-4.14805970848983	-10.416110713213559
O	-4.938302313949153	-2.307491878489831	-9.72574670321356
O	-6.8637343839491525	-2.38485897848983	-6.488721133213559
O	-9.269053283949152	0.5233345864101696	-6.9221789332135595
O	-7.136474613949153	3.0032105515101692	-8.854592723213559
O	-3.4797134439491524	1.9049894515101695	-8.662374063213559
O	-3.0670984439491527	0.6390379335101696	-5.10928680321356
O	-5.717219363949153	3.2999396415101696	-4.114403233213559
O	-3.4649188239491524	6.10556624151017	-5.31938689321356
O	-0.2983037749491525	4.51893234151017	-3.8828311532135595
O	-1.9327941439491525	3.8990922715101695	-0.5097710712135595
O	-2.8725012239491523	7.60679507151017	-0.018480507213559427
O	-5.667198383949152	6.15405320151017	2.0102516467864406
O	-10.41735706394915	0.3344840625101696	-1.4867527722135594
O	-12.702026203949153	-2.2959515184898303	-2.9859907432135597
O	9.371036296050846	-3.60597045848983	-7.0847481432135595
O	10.951716196050846	1.2919123245101696	-8.777103513213559
O	13.529953596050849	6.1500949515101695	-9.134282843213558
O	10.034556796050847	6.76381137151017	-10.602808443213558
O	11.164767396050848	6.03242278151017	-4.68682736321356
O	12.22761889605085	6.17959283151017	-0.9853236792135595
O	7.094781996050847	-8.977059848489832	8.386248856786441
O	6.188004746050847	7.93185041151017	5.4355271267864405
O	4.558498246050847	9.491171291510168	0.8841809067864405
O	6.304483756050847	7.77766733151017	-1.9865320232135595
O	7.613270326050848	4.812880761510169	0.07889058278644057
O	9.046864596050849	4.00211864151017	3.4980890667864406
O	7.572387426050848	1.4580024475101696	5.90224902678644
O	9.56129849605085	-1.5554418284898304	4.73100605678644
O	8.382593536050848	-1.2752906184898305	1.0573922067864405
O	4.770015406050848	-1.0860496084898303	2.0568987267864403
O	4.689202376050847	-3.7896707184898304	4.69914841678644
O	6.609282036050848	-6.2729636584898305	2.5242328767864404
O	4.853970326050847	-5.2022308584898305	-0.6372751826135594
O	1.1443659160508477	-5.115647388489831	0.6177903567864406
O	0.9831312160508476	-8.763994348489831	1.3574799167864406
O	2.6416619360508475	-10.11643756848983	-1.8198766232135593
O	0.4734352860508475	-7.798044138489829	-3.8293377932135595
O	-2.7820700839491526	-8.54142005848983	-2.4319649232135596
