81

O	0.17639314768333292	-0.656593833616667	-0.727247633666667
O	0.005905294683332896	-1.986067463616667	-0.329949764366667
O	0.009160915683332882	-4.346797803616667	-1.416927215666667
O	0.5176281796833329	-3.4951749236166667	-0.263973771466667
O	1.2418514896833328	-0.4059411436166671	-1.439797215666667
O	1.0489285696833328	3.197920106383333	-2.686377715666667
O	-0.09759891231666712	-4.241482573616667	0.821019474333333
O	1.3155454396833328	0.683320972383333	-2.250459895666667
O	0.9562847596833328	4.387665776383333	-1.984334915666667
O	0.7013718096833328	1.944411176383333	-2.156324895666667
O	1.702001769683333	3.464280686383333	-3.697372325666667
O	-0.25097501031666714	1.7791863733833329	-1.258824951666667
O	2.2157110896833325	-0.819741193616667	-0.508580176666667
O	-0.6241618161166671	0.472456455383333	-0.712885398666667
O	2.2405581496833324	-3.621550673616667	-0.222354703666667
O	2.7715905096833326	0.332577485383333	-0.05843079166666698
O	3.2310192796833332	0.865715078283333	-1.480535815666667
O	3.724061329683333	2.307915926383333	-1.584658375666667
O	4.010103509683333	2.173221696383333	-0.18101300766666698
O	2.623970439683333	2.737807546383333	0.211023952333333
O	1.8766480196833328	1.380517730383333	0.23732363933333306
O	-2.033957690316667	-12.296554303616666	-3.482088485666667
O	-6.162240530316667	-10.930811403616666	-0.07785098266666696
O	-2.673927830316667	-9.699117203616666	0.922990434333333
O	-2.147196330316667	-13.010696603616667	2.702514824333333
O	-5.307771210316667	-12.475797703616667	4.7548423543333325
O	-4.316762010316667	-8.857689593616666	5.602556704333333
O	-0.8981869363166671	-9.988973503616666	6.8508337343333325
O	-11.410467750316668	0.437238167383333	5.645953824333333
O	-13.953729450316668	-1.679477263616667	1.5561478843333332
O	-10.232716790316667	-1.045903963616667	1.0962247643333332
O	-10.989675850316667	2.488464066383333	-0.03037273966666698
O	-12.590837550316667	-1.751524703616667	-3.920364135666667
O	-9.823344160316667	0.142357361383333	-5.685617075666667
O	-9.270484420316668	1.198914111383333	-11.284744275666668
O	-8.758357160316669	4.922330026383333	-11.888240375666667
O	10.063006049683333	-4.6648768936166665	6.557039774333333
O	11.826195349683331	0.627072672383333	6.6656825443333325
O	3.027895219683333	16.26474559638333	-6.655334145666667
O	-3.2623950103166672	12.864963296383333	4.738797704333333
O	-3.6836143503166667	11.359983996383333	8.193053844333333
O	-0.043340927316667166	10.510655766383334	8.726891484333333
O	0.30417728068333283	9.102714926383333	5.231749384333333
O	-2.622428970316667	6.737681776383333	5.657321104333333
O	-2.229538360316667	5.727405526383333	9.267405934333333
O	1.5263310896833329	5.614914516383333	9.687224324333332
O	3.150673959683333	5.650553206383332	6.288696224333332
O	0.8007952796833329	3.348581366383333	4.249129574333333
O	0.2446180966833329	1.385902590383333	7.384846984333333
O	3.9399343096833332	0.5401787163833329	7.7046225843333325
O	4.338930129683333	-0.17847730361666692	4.009426014333332
O	1.4104102096833329	-2.389482993616667	3.844822614333333
O	2.5160609496833333	-4.737065943616667	6.643602634333333
O	-1.1714523953166671	-5.129210333616667	7.229643184333333
O	-5.809974760316667	1.584977548383333	8.470819814333332
O	-8.024959440316668	4.604135516383333	9.059945024333333
O	-8.260998330316667	8.139802706383334	7.710327374333332
O	7.387146449683333	5.821067036383333	-7.231151965666667
O	12.084739549683333	4.227944876383333	-5.079817185666667
O	15.796868949683331	4.937158456383333	-5.319402295666667
O	16.737446449683333	1.4342362143833332	-4.081595165666667
O	15.607411649683334	2.7360935963833333	-0.650855208666667
O	12.933536049683331	-1.8160162936166668	-3.662589555666667
O	-4.946378220316667	-3.3928031436166672	-13.106625675666667
O	5.668105339683333	-10.550668803616666	-1.6480107756666669
O	7.812980539683333	-7.503271773616667	1.7784143343333332
O	9.458226249683332	-4.448915373616668	0.27689862833333306
O	7.521564049683334	-4.606922763616668	-3.044556305666667
O	6.2094779396833335	-7.127930013616666	-5.555123475666667
O	2.6023234096833328	-7.443104893616667	-6.658909325666667
O	2.772716889683333	-5.006440493616667	-9.562468775666668
O	4.072926559683333	-1.995186263616667	-7.5215036756666676
O	1.428982529683333	-2.425746703616667	-4.9024354656666675
O	-1.568850580316667	-3.060324713616667	-7.162644105666668
O	-0.7293608733166671	-0.13069657361666698	-9.530354275666667
O	0.37431902168333286	2.0646680763833327	-6.750804925666667
O	-2.433356850316667	1.5888470223833329	-4.166033515666667
O	-5.190438330316667	2.996325136383333	-6.347563005666667
O	-3.287266800316667	6.152852486383333	-7.429055545666667
O	-2.206871890316667	6.714927156383332	-3.859248545666667
O	-5.576917790316667	6.4159940063833325	-2.213064625666667
