22

O	37.10927394858646	-23.51273133662284	-17.035476586453353
O	37.6064940617735	-22.705403076564014	-17.76909531318584
O	35.711745394970144	-23.54945569975922	-16.66703730980388
O	37.723436926242194	-24.662585444837575	-16.733861777701787
O	35.12904480789397	-22.350136547145684	-17.273774867588052
O	33.85141753010315	-22.843939922115926	-17.856204496997208
O	33.16282448121342	-21.613898631199728	-18.149175549453638
O	32.7903879119536	-20.83987096673751	-17.164462820705356
O	31.99275608200721	-21.50544828182041	-16.170672290390858
O	32.71884982167866	-22.649792921817276	-15.72144419764368
O	32.01589771685316	-23.695125865117593	-15.956523218117823
O	30.879516562799004	-24.053723247761177	-15.207800061406113
O	30.947158937044975	-23.940376686222194	-13.831094031880168
O	31.08096288325713	-24.898559777602177	-12.985945514650805
O	31.045615588598885	-26.286645792060625	-13.3923937021334
O	32.33444950673528	-26.875388959729353	-13.087390708338532
O	33.228366974856826	-26.128542611516632	-12.5169327521977
O	33.337555155868884	-24.827693499417865	-13.21158871201445
O	33.80008580991906	-25.382171335479587	-14.557881848860202
O	35.15212901533013	-25.99841820716162	-14.150486681812518
O	35.10350055056313	-27.325391388085787	-13.527054942221067
O	35.657010984321886	-27.63049307781975	-12.194920304109338
