26

O	30.241435409420177	-25.49596297681805	-11.110052397959993
O	26.15932491455473	-23.242175945854676	-17.72675118941186
O	25.91018434020954	-25.451315042178067	-15.840925575521718
O	26.29106726844377	-24.192068007459916	-16.340860832640665
O	30.593414706845174	-23.76523222411746	-12.735840307018638
O	32.06895076892367	-23.18374845573363	-17.734474818589927
O	25.394390429067208	-23.17555310924864	-15.927822649832763
O	31.586382501791388	-25.71787139982528	-13.129850885510997
O	31.65331847296046	-23.18636061098574	-16.520180152589496
O	31.306292694031676	-23.234285907908458	-13.749597209381495
O	31.9028372140838	-25.24254305998772	-14.363252696951612
O	29.53049921334211	-22.339584663138666	-15.570061990424078
O	29.93094172452623	-24.58519554403457	-15.848700937686633
O	28.21247168684277	-22.649349368608394	-15.656207688529955
O	28.711672535880698	-24.90264111735344	-15.324545106470534
O	33.71967240439586	-23.034259942244706	-16.518874546090768
O	30.55331733237601	-25.081670828080128	-12.518080543885269
O	32.32766054825457	-23.965908390016878	-14.401017520186514
O	30.4048108039029	-23.28576538066437	-16.03642521479617
O	27.833640608216758	-23.942378940935555	-15.670487740396693
O	32.686301331037185	-23.396266101420935	-15.707428860389394
O	33.09782777828585	-22.406063887521167	-17.6140864673934
O	33.638314482714236	-21.758598170234148	-18.865040152508456
O	34.75618048060967	-22.420708534113263	-19.083220161685553
O	33.515339534698406	-20.446861940248688	-18.67177323252727
O	32.8033136599841	-21.892121941809677	-19.944717067137752
