85

O	2.6136759318412697	3.7610635136	2.0092099195285713
O	0.8984487118412697	1.7519710416	1.0438967595285713
O	2.47266129184127	-0.6272840364000001	-0.3553088560714286
O	2.6879302918412695	0.16340497259999998	2.2099905795285713
O	-1.4735469081587302	-2.4242645264	-1.9297913904714286
O	1.1108848018412698	0.4632634636	0.7639819195285713
O	-2.27964588815873	-0.45122913640000006	-1.4204149304714286
O	1.7291436418412696	2.3486692936	1.9041697995285713
O	2.25948284184127	1.3710982476	2.7789915495285715
O	2.2793679218412697	-0.20377454039999998	0.9209134195285713
O	-0.022270889158730156	-0.23114290640000013	0.12584391752857144
O	2.1711932618412697	1.9562760636	4.115864129528571
O	0.9129923718412699	1.8675956035999999	4.876918099528571
O	3.44624319184127	1.6433336885999998	4.701657699528571
O	2.28392083184127	3.5089087636	4.134851929528572
O	0.11171346084126982	-1.0562294664	-0.8919305574714287
O	-1.15961090015873	-1.3028203264	-1.5386547704714286
O	1.4412016818412696	-1.3496594864000002	-1.1619013934714286
O	2.22977383184127	-2.5436897064	-1.3130904434714286
O	1.98528677184127	-3.6882675563999996	-1.9139335204714287
O	2.4686529118412697	-2.9765536464	0.027789084528571373
O	3.5837710918412697	-2.2737504864	-1.6087830304714286
O	6.32801170184127	-6.9791797164	-7.094619620471429
O	8.781225061841269	-7.7046485864	-9.847243780471429
O	5.96869749184127	-7.5652214964	-12.415645470471429
O	4.61216712184127	-4.2864125364	-10.973884370471428
O	8.07114857184127	-2.6830844164	-11.169928170471428
O	-6.675985708158731	-1.4901286564	-9.327755000471427
O	-9.70904684815873	-3.5471599863999996	-8.426216130471428
O	-7.4151923581587305	-6.5177377764	-8.066485990471428
O	-4.854752928158731	-4.6377536464	-5.916483080471429
O	-7.69076084815873	-3.5088643864	-3.7318273304714284
O	-9.48399529815873	-6.8540209064	-3.3248977504714285
O	-6.583374738158731	-9.3172840264	-3.2674434704714286
O	-5.56607898815873	-7.9699720964	0.09759936052857138
O	-8.956050578158731	-7.6268678164	1.7585688095285712
O	-8.95635902815873	-11.1530391264	3.0877328395285715
O	-5.8783462481587305	-10.425437026400001	5.2399179395285715
O	-7.72386190815873	-8.183431686399999	7.704551639528572
O	11.874130101841269	9.8565860836	-1.0318003864714287
O	-0.35245844945873017	8.796899923600002	10.030793029528573
O	-4.86030338815873	7.7013742936	13.542662429528573
O	-8.80999280815873	8.996507703599999	8.123437629528572
O	-7.53227660815873	9.637285633600001	0.4630200735285714
O	-6.8725591381587305	10.629550213600002	-3.1502436704714287
O	-3.4278888381587302	12.0412481736	-2.557320020471429
O	-2.41686917815873	9.1569118436	-0.34037440977142863
O	-3.31489798815873	6.5304001936	-2.9041898904714287
O	-2.30903796815873	8.2931967736	-6.092617910471429
O	0.7775053518412699	10.2031918036	-5.053784110471429
O	1.9637126818412698	8.8906660536	-1.7196293504714286
O	1.45741632184127	5.1006840636	-2.0198127504714285
O	2.2038528118412697	5.4605112236	-5.671724100471429
O	5.67653749184127	6.7933002336	-4.917453970471429
O	6.29179823184127	4.2714136436	-2.1339833304714286
O	5.31044076184127	1.3652711886	-4.310741300471428
O	7.65626341184127	2.1076975235999997	-7.170690000471429
O	4.9535511318412695	0.5403415626	-9.304417340471428
O	-2.7600241981587303	3.5187541736	-8.845281390471428
O	-6.337533238158731	4.8486723036	-8.786590310471428
O	-8.66178223815873	6.1905947136	-6.097539310471428
O	0.10692286184126981	-1.3068043563999998	11.848758529528572
O	4.9059692418412695	2.4945427736	10.835198229528572
O	9.60190336184127	5.0654671336	9.999977829528572
O	12.15633540184127	7.0725135836	11.974804229528573
O	0.2638719398412698	-12.552739926400001	6.154354989528572
O	11.310056101841269	-4.5610495864	9.805768229528573
O	11.27464000184127	-1.3845815064	2.4519234295285712
O	11.67193430184127	-5.1182701864	2.7329451295285714
O	8.98775965184127	-7.701807056400001	2.0004156695285715
O	7.548885491841269	-7.932088836399999	5.478184219528571
O	6.86990431184127	-4.1840793664	5.778649359528571
O	5.063587311841269	-4.0622662364	2.4934997695285714
O	2.9656446218412698	-7.2545185764	2.9576328495285713
O	1.8346796718412697	-6.3308883464	6.442412259528571
O	1.5197645018412698	-2.7291195864	5.605347259528571
O	-0.4383221808587302	-2.6638152164	2.418465519528571
O	-3.51636426815873	-4.4259453564	3.739822889528571
O	-3.9019900381587305	-2.1983060264	6.830402209528572
O	-3.2777968481587303	0.8324673578	4.654398779528571
O	-5.82093372815873	0.1291826386	1.9738360095285712
O	-8.455920368158731	-0.9294288664000001	4.504687079528571
O	-8.14647642815873	2.3982526736	6.339020669528571
O	-8.22363774815873	4.3267577636	3.0843474495285714
O	10.92255410184127	12.5357096736	-4.482512620471429
