18

O	32.94850511368832	-19.892047934462614	-17.211195182404847
O	33.238125901304954	-20.410743224406254	-18.569543434798994
O	37.81552987226118	-23.00737984626242	-18.811218287196578
O	34.38029011268498	-22.101438401989263	-17.38567331862967
O	35.767270647265896	-22.496237895652083	-17.624304585898944
O	35.51193857188465	-26.596143721410122	-13.508313738010923
O	36.28327229896242	-26.421213133263905	-14.460939381960333
O	34.076206005578825	-26.57251162306563	-13.81680177760661
O	35.9293540078565	-27.48655302816423	-12.552737209019984
O	33.65162158152793	-25.1504528970462	-13.951339324889465
O	32.226309848360984	-25.05816264439165	-13.419230835898599
O	31.298559705358347	-24.448751383497846	-14.465648764478198
O	32.22979906219201	-23.676875327180934	-15.396302755321857
O	31.665698563777287	-22.323438518546883	-15.441175172672331
O	31.649648664810712	-21.80654507427696	-16.781554153366347
O	31.604423495898445	-20.347617226540756	-16.84262212301726
O	33.38770462270793	-21.865044305677266	-18.368875634055676
O	36.63524876497116	-22.08505108013026	-18.72535949766731
