82

O	-2.1224270901265627	1.8082216944218743	-2.3299405604439056
O	-2.728956440126563	0.46663547142187434	-2.504019660443906
O	0.8734196898734374	-3.3717087175781253	-2.7127196804439055
O	-0.8313090881265627	-0.2491730375781256	-1.2994075124439055
O	0.08573565987343734	-1.3009987875781257	-1.7343995204439056
O	3.3108913598734375	-0.7454037275781256	3.0724172795560944
O	3.2108798698734375	-1.6554331975781258	2.2388129895560946
O	2.0557321898734378	-0.24599803757812566	3.648803229556094
O	4.396894539873437	-0.8115210875781256	3.9069329895560942
O	1.4227617698734372	0.6735058934218744	2.6616435295560943
O	0.7226869398734375	1.7688912424218743	3.457380069556095
O	-0.7493102161265627	1.8613351424218743	3.0678015895560944
O	-0.8164839671265627	1.2266979054218743	1.6814973295560947
O	-1.4802130191265626	2.2346099724218744	0.8474762795560943
O	-2.4680479701265625	1.6384738104218743	-0.00859382844390566
O	-2.7818157801265624	2.4450412524218743	-1.1855576344439056
O	-2.2471090401265625	-0.29427695757812566	-1.3350592874439058
O	-0.08142280612656261	-2.2231983875781256	-2.8552868804439053
O	-9.633371390126563	5.124257002421874	-5.054089260443906
O	-13.318750030126562	5.655098382421874	-5.5020643804439056
O	-13.436059130126562	2.9351195924218745	-8.169961460443906
O	-11.443683530126561	0.5080264604218744	-5.973099230443905
O	-13.854134530126561	1.0498153284218743	-3.0532783204439053
O	-2.707540820126563	-6.510020627578125	-9.511759400443905
O	-0.046635340126562674	-6.203651517578125	-12.197086520443905
O	-1.2902365021265627	-2.7153060375781255	-12.859155620443905
O	-1.3615564591265628	-1.7514763675781255	-9.153145120443906
O	2.1854631398734377	-3.033150037578126	-8.857393290443905
O	3.6358025198734367	-1.3247993275781256	-11.963795220443906
O	1.7282553398734375	1.9783033274218744	-12.027842620443906
O	3.591321759873437	3.0831426624218743	-8.938092950443906
O	7.108428959873437	1.8492989884218742	-9.814602120443906
O	8.068169159873438	5.013356002421874	-11.625033120443906
O	7.663478429873437	7.059063082421874	-8.405193750443907
O	10.720361769873438	5.619769922421874	-6.6675469504439056
O	-8.518747070126562	-1.4486154375781255	12.514727879556094
O	2.558799699873437	-2.5650323575781258	11.795757379556095
O	7.971871549873437	-1.9647131475781254	10.270416479556095
O	13.484722369873438	-1.7739434275781258	8.564402099556094
O	11.975382269873439	-7.2400031475781255	4.7423408295560945
O	5.361229739873437	-10.561068397578126	2.2875151295560943
O	2.204597559873437	-12.589761897578127	1.6421369295560946
O	0.43419316987343737	-11.535295097578127	4.813946529556095
O	1.3988633098734373	-7.902186467578126	4.4075023195560945
O	0.001725894873437328	-7.668255977578125	0.9073461095560943
O	-3.029790280126563	-9.909259197578127	1.1887995995560945
O	-4.2077697601265625	-9.177572397578126	4.709304989556094
O	-2.4861231001265627	-6.0456594075781265	6.005266349556094
O	-2.468611130126563	-3.7038941375781254	3.0186422095560945
O	-5.728740740126563	-5.354273007578126	1.9384033395560945
O	-7.453986440126563	-4.229929967578126	5.1398213895560945
O	-5.869436590126563	-0.7935145175781257	5.094942739556094
O	-6.940808380126563	-0.1415372075781256	1.5521269995560947
O	-10.581127230126562	-0.8724688675781256	1.9452922295560944
O	-10.354848260126563	-2.0498723875781257	-1.6597722504439059
O	-4.875648230126562	-7.947480117578126	-3.6584088504439056
O	-2.4400976201265627	-10.675507497578126	-4.689347150443906
O	1.1196937898734374	-11.624105297578126	-3.7909281604439053
O	8.703296159873439	6.439474352421874	4.408859179556094
O	5.031351919873437	8.906288422421875	7.239615189556094
O	4.780347929873437	5.600594072421874	9.096290799556094
O	1.2331640598734375	5.955525272421875	13.137619879556095
O	1.1002458498734373	6.7203503824218735	16.856718679556092
O	-0.14447834512656266	13.714543202421874	7.340188639556095
O	-5.641940930126563	8.032827822421874	6.035457709556095
O	-5.736935400126563	11.048223672421875	3.783853329556094
O	-4.550108530126563	11.226220102421873	0.18086328455609435
O	-0.9727607600265626	12.257047102421874	0.8874882595560943
O	-0.25974883512656266	9.339599052421875	3.2475371795560943
O	-1.5865308161265625	6.879404882421875	0.6934604595560944
O	0.12579408987343732	8.225657732421874	-2.409446570443906
O	3.519965769873437	8.576314972421875	-0.7141475934439057
O	3.1475734798734374	5.375516022421875	1.2899322595560943
O	1.9670591798734371	2.9113225824218745	-1.3354939604439058
O	5.030794389873437	3.2313741424218745	-3.6381807404439055
O	7.649754319873437	2.8420888924218746	-0.8512020004439056
O	5.660850189873437	-0.02236082757812574	0.5550207195560944
O	5.339044819873437	-2.080464807578126	-2.5658802204439057
O	8.965409359873439	-1.4737507975781257	-3.5907695304439056
O	10.134778569873438	-2.9261433375781256	-0.27262984044390565
O	7.747621019873438	-5.865141657578125	-0.5370542740339056
O	-10.409205360126562	-5.477408727578126	12.194803379556095
