93

O	-2.1402528733235284	-3.3662668195573526	0.942079690897059
O	-1.4238878272235287	-2.8640129495573525	1.742561010897059
O	-2.9573762003235284	-2.5991557095573525	0.11789879989705898
O	-1.7812469543235288	-4.530518289557353	0.485705430897059
O	-2.7694480303235287	-2.988317559557353	-1.1892311401029412
O	1.6366407896764712	-2.8019771695573525	-1.4353720841029411
O	-1.4472058628235287	-3.3814057295573527	-1.238209925102941
O	2.085252479676471	-1.7902933895573527	-0.8785042971029411
O	-0.9850982023235286	-2.7773198095573526	-2.2991066391029413
O	-2.4103028403235287	-0.5613890295573527	-1.990800699102941
O	0.014168599676471327	-2.1365249595573528	-2.687712079102941
O	0.4032840996764713	-1.0820266095573525	-2.051623599102941
O	-0.013576120323528729	-1.9307703695573526	-0.847274798102941
O	0.5951103896764713	-3.2369982895573526	-0.756039193102941
O	1.0320295096764713	-3.220965949557353	0.5168233308970589
O	1.7914002296764715	-1.9620648395573528	0.43275338089705895
O	0.9067026696764713	-1.1146977395573525	-0.091958015102941
O	0.7820343196764714	0.1570889614426474	-0.572108219902941
O	-0.39569356032352876	0.5364816056426474	-0.939842369102941
O	-1.7954023613235286	0.22449680044264742	-0.974125823102941
O	-1.8119187523235287	-0.32089368455735257	0.310494323897059
O	-0.5519540373235287	-0.6079951995573527	0.920979010897059
O	-0.4373680923235287	0.4429944574426474	1.9453611808970588
O	-0.6903867733235287	1.8010973204426475	1.6196130608970591
O	0.6202440296764711	2.472672270442647	1.833621340897059
O	-9.952518940323529	7.587685240442648	-7.139812899102941
O	-7.433403830323528	10.012116940442649	-5.659325499102941
O	-9.90584009032353	12.360153030442646	-3.964857409102941
O	-10.337650910323529	8.495493620442648	-0.288058976102941
O	-8.700458880323529	11.717620130442647	1.023200790897059
O	-7.002843090323529	10.256310190442647	6.728803000897059
O	-5.8521447803235285	6.1804568304426475	12.620191730897059
O	1.8220916896764714	-12.130572669557353	-8.01627104910294
O	5.438754719676472	-13.245046769557351	-8.17627972910294
O	6.595910489676471	-8.343946419557351	-6.642070619102941
O	7.125496169676471	-9.790080369557352	-3.090760299102941
O	7.265105119676471	-4.571464199557353	-1.574912423102941
O	9.639045179676472	-5.5028878995573525	1.267407300897059
O	9.94284687967647	-0.20501839155735258	-0.9757439511029411
O	8.041376419676471	-0.38652656955735254	2.307184840897059
O	11.04409967967647	-0.7516488095573526	4.438526080897059
O	11.919712279676471	2.8668278104426475	3.755426910897059
O	8.93324437967647	4.035855440442647	5.778829400897059
O	8.394986999676473	1.0897644464426475	8.14863737089706
O	11.695454879676472	6.837353410442647	9.34977082089706
O	7.0268675996764705	8.501219330442648	3.438478020897059
O	8.66822617967647	7.8484409204426475	0.137827381897059
O	10.291311379676472	7.161826070442648	-10.677122869102941
O	9.47535217967647	5.318879360442647	-7.487306979102941
O	6.060128599676471	7.006202010442648	-7.115887049102941
O	5.376990549676472	6.346243040442648	-10.808816269102941
O	6.215298879676471	2.6531243304426475	-10.720066769102942
O	4.302847419676471	2.1107979904426477	-7.525869529102941
O	1.096712409676471	3.6617187204426473	-8.893033209102942
O	2.6324787896764716	-2.0801095895573525	-8.539891949102941
O	-0.7709876723235287	-0.8140329995573525	-7.309580719102941
O	-2.1063570033235286	-1.4467265095573527	-10.810221169102942
O	-1.2862843853235286	-5.152855449557353	-10.51192291910294
O	-2.6649370903235288	-5.487278029557353	-7.121720699102941
O	-6.011692560323529	-3.7529369895573526	-7.859245549102941
O	-6.827549160323529	-6.122608939557352	-10.60050802910294
O	2.9811750296764714	6.970983620442647	8.69203791089706
O	0.21309700967647127	5.284523220442647	10.63343463089706
O	-2.065205113323529	0.5851475416426474	11.500632530897057
O	-0.7057717963235287	0.9623698274426473	8.01237386089706
O	2.497295869676471	-0.7465479995573525	9.187250760897058
O	0.5226427196764714	-3.5012764095573523	10.86585933089706
O	-1.7698719873235287	-4.229115069557353	7.978081580897059
O	1.4014466696764711	-4.410161959557352	5.723760620897059
O	2.9567155096764717	-7.506773859557353	7.432681110897058
O	2.470948009676471	-9.606394069557354	4.244998290897059
O	4.522413069676471	-12.596486469557352	5.263694470897059
O	-8.668490070323529	-10.714204569557353	10.82933623089706
O	-6.772946900323529	-9.264661279557352	7.951292480897059
O	-7.143456750323529	-9.612461869557354	-0.15588166010294102
O	-10.396892930323528	-9.125939289557351	1.6909751408970588
O	-12.434586320323529	-5.913817109557352	2.004718370897059
O	-10.883610080323528	-4.621563919557353	5.248421240897059
O	-7.370125250323529	-4.736297269557353	4.070339990897059
O	-8.421066130323528	-2.7494425395573527	0.809784820897059
O	-10.418524230323527	-0.04353070055735264	2.468387380897059
O	-7.867775850323529	0.6469609581426474	5.249845340897059
O	-4.940360910323529	0.2901379914426474	3.002199200897059
O	-5.9455187503235285	2.462871640442647	-0.10502765710294104
O	-6.151172970323529	5.674901320442648	1.764233710897059
O	-2.8416477903235284	5.343491540442647	3.6591345208970587
O	-1.2255167923235286	4.633485330442648	0.360901590897059
O	-2.3054572993235287	7.154451800442647	-1.868770889102941
O	-1.6704158513235288	9.680917010442649	0.8669929108970589
O	1.9765982996764713	8.669555900442646	1.182555500897059
O	2.4205346296764714	8.558101930442646	-2.591758879102941
O	4.901025129676471	-8.365384339557352	-11.23183676910294
O	2.982851349676471	-11.438189169557354	-12.225644769102942
