89

O	-1.7357794017142858	0.7987789657500001	0.7574951318750005
O	-1.7180608817142857	1.96007400775	0.013370121875000418
O	-0.40655230971428574	2.26168127475	-0.18570008812499972
O	-0.5724102697142858	0.009394324750000127	1.0362446518750004
O	0.8352844482857142	0.34742040475	0.8168654118750005
O	0.8110615382857143	1.6352307487500002	0.05839234187500031
O	3.2753005382857143	0.2804601847500001	-0.0863507981249998
O	2.0809613382857144	-0.3971992652499998	0.4655268318750003
O	3.1590498382857146	1.40198184475	-1.0364722351249998
O	1.6666419282857141	1.35713060475	-1.0714612431249997
O	1.5764451282857141	0.10529810475000012	-1.7521383361249998
O	1.754176558285714	0.91563311275	-2.9388150881249997
O	2.9636769182857146	1.58448415365	-2.4419714181249996
O	3.7843461182857148	0.92930126275	-3.4716195081249994
O	3.881705388285714	1.99483408875	-4.402102788125
O	4.8079425182857145	0.5351892747500001	-2.6804744881249998
O	2.6116102882857146	-0.8353280652499999	-2.056018342125
O	-2.4846810317142856	2.32972362475	-1.0989780481249998
O	-1.6947630917142857	2.96840985475	-2.069929742125
O	-0.35684939021428574	2.46252570375	-2.4472754481249996
O	0.3306122082857143	3.30393987475	-3.3736680281249996
O	1.072555218285714	4.05879416475	-2.318659757125
O	-0.15379673471428573	4.88679826475	-2.183630701125
O	-1.5573892217142857	4.39588581475	-2.1978491931249997
O	-2.1460581617142855	5.0366740747500005	-3.2469880981249997
O	-1.2389283937142856	5.28487711475	-4.236327418125
O	1.1736102882857142	3.4312366347500003	-4.379424648125
O	1.934030378285714	4.56136404475	-4.633703458125
O	1.5675437782857142	4.99423998475	-6.056629458124999
O	2.2044087082857144	3.97261641475	-6.800448488124999
O	1.7329166782857144	2.70809238475	-6.555762048125
O	0.8599771282857143	2.67362745475	-5.419168888124999
O	3.6148721582857144	3.9730926447500003	-6.935955768124999
O	-3.2898472517142854	12.716942194749999	7.589864451875
O	-3.2271310417142858	12.854586994749999	3.7841481718750005
O	-0.13953031871428576	12.04931139475	1.7556916218750003
O	-0.7310233867142857	8.93535946475	-0.31407102812499965
O	2.6082377882857144	8.55238579475	-2.1718447681249997
O	6.1667547182857145	7.28371153475	-2.4297955721249997
O	7.941320348285714	4.0162113147500005	-3.084039768125
O	11.557740928285714	3.1699740047500002	-2.633301108125
O	9.389340758285714	4.99676580475	2.096691951875
O	6.481882568285714	7.43487693475	2.0503834318750007
O	2.8549980182857144	6.55922312475	2.657632041875001
O	0.3781636202857142	8.59836685475	4.739672951875001
O	-3.1562068017142857	8.06886559475	5.868433651875001
O	-4.514366641714285	3.15745170475	8.417364281875
O	-1.8384801317142858	3.42348150475	5.7709766118750006
O	1.3534806682857141	4.55410166475	7.596665031875
O	4.550930688285715	3.4039451447499998	5.7927179918750005
O	7.400665688285715	5.64465844475	7.002308351875001
O	8.666382288285714	-6.539218185249999	8.913024151875
O	-2.4069820817142857	-6.16897793525	3.359716171875
O	-3.0138525617142857	-6.21847301525	7.077620261875001
O	-0.09549031971428576	-5.6477050452499995	9.413795351875
O	6.8152119482857145	3.46308531475	11.193402751875
O	4.703407948285714	0.5384502317500001	9.952735851875001
O	0.9080978782857141	0.6000623787500001	10.441636451875
O	-0.8669251037142858	-1.12012719525	7.532459931875001
O	-4.389916111714285	-1.78655829525	6.2990901118750005
O	-5.608992141714285	1.2335925897500002	4.333838591875001
O	-6.627996751714286	0.38923770474999997	0.8116678418750005
O	-8.434409921714286	3.51898375475	-0.37259239812499967
O	-8.846839241714285	2.56236523475	-4.0336661681249995
O	-5.315878511714286	2.22288048875	-4.730355568125
O	-4.105003551714286	-0.76832005525	-6.889674498124999
O	-4.600556401714286	-2.8183512652499996	-9.996837098124999
O	-2.0161681417142856	-0.7034268652499998	-11.814158348125
O	-4.234387651714286	2.43375513875	-11.691061848124999
O	-7.211462221714285	0.29202704474999996	-12.693331148124999
O	7.432412918285714	-9.09862580525	-6.724130418124999
O	3.7635313782857143	-9.72779610525	-7.496689898124999
O	2.7637624782857144	-7.00363973525	-9.930726518124999
O	-0.24706036871428574	-4.77282273525	-10.563383418125
O	1.1220839282857142	-2.00042114525	-8.332029268125
O	1.4114289482857143	-4.21048203525	-5.290631718125
O	-2.1024411617142857	-5.5889501052499995	-5.646122768124999
O	-4.070848141714285	-3.0013591352499995	-3.672831238125
O	-7.823205281714285	-2.4517249552499996	-3.600472048125
O	-9.866036421714286	-1.4783911152499998	-0.5819494081249997
O	-11.109588171714286	-6.47957813525	-2.6017797981249995
O	-7.482198561714285	-7.325563345249999	-3.471184658125
O	-4.749882091714285	-7.148469415249999	-0.8592328811249997
O	-1.1874054587142857	-8.161235825250001	-1.6978442901249997
O	1.3272225882857143	-5.8219021052499995	-0.2663118781249998
O	5.006848488285715	-4.74319670525	-0.47572458812499974
O	6.958855608285714	-7.56566174525	1.0337795118750004
O	10.232299628285714	-5.7294783452499995	0.40281572187500037
O	11.515050128285715	-8.59420300525	-1.8223591341249996
