40

O	-0.33171341895513673	21.425750510135906	69.97623646164284
O	-1.3670684759209972	22.29287442046732	69.78057516318228
O	-1.1847501874682	23.446260950794336	69.14282407613022
O	-2.010110601986812	23.567574323817617	67.93564101026239
O	-1.9611877626040781	24.90531875624518	66.79721549551424
O	-0.7742293482648336	24.528114446744453	66.17466650534153
O	0.10845718834115357	24.727104810129628	67.36804957482002
O	-0.016992695133102545	24.190995314103166	68.83483016123586
O	0.5634964286768177	25.343197996379416	69.54115880311016
O	0.5928178077577023	26.56161229059195	68.80983886743743
O	1.5571133098907524	27.422094615793718	68.25991967539402
O	1.0254142931028019	28.427907159380716	67.32775010556803
O	0.5253062997783392	27.752583515088894	66.21820442701328
O	0.08670716432987434	27.538546718634414	64.91320690684097
O	0.6445011363141703	26.324932385554938	64.45046338663886
O	0.10355346874148962	28.42905206342691	63.798933351203125
O	0.9978816919488527	29.2513403639261	64.69150583497343
O	-1.065086789393318	29.107124782622336	64.05639374727826
O	-1.270718915299723	28.75653842185757	65.47856182180955
O	-1.60697183460634	27.3479874043939	65.72971815984207
O	-2.092560167804069	26.92976753968552	64.54627522130767
O	-1.7802245505368086	26.142637916649743	63.37947119814713
O	-2.824809529288803	25.239192927595344	62.9064433769305
O	-4.016997977153574	25.832703840023814	63.536950669108926
O	-3.621036756784474	26.973029159963968	64.43029763065371
O	-0.7650974991222028	27.370350203743328	66.85778659747935
O	-0.42732411877504484	26.589743591187467	67.92703939192113
O	-0.36854359860885433	30.38809702506698	63.738341187802796
O	0.370585954939294	30.495681538828016	62.46171555458065
O	-2.888756562553396	24.18526683581893	65.91963743764417
O	-4.094892358125279	24.649516339481455	66.55470428540393
O	-3.276192578725672	22.65459924176113	66.42824320733797
O	-3.5733676121965594	21.69745612606433	67.34965113131146
O	-3.025856453871301	20.60918123007651	68.10430926179275
O	-3.4092021381760493	19.347711979309715	68.63907207830198
O	-4.54323149118528	18.579579402128907	68.34734130841329
O	-4.460389697877598	17.205426256979386	68.044500434008
O	-5.151168452637546	19.47405871740191	67.42028797552126
O	-4.754650553641073	20.839737574066824	67.33652924931837
O	-2.0609934999194905	28.74979741872403	63.36267123448911
