31

O	-3.3628593996685865	28.37004331012982	60.959704074869784
O	-5.577040445585219	28.549137392992616	59.14309090674786
O	-7.636940992039916	30.37249021477791	59.05504501682891
O	-3.578430368033315	26.056019025223414	61.94417753564544
O	-2.785096816355377	27.176601131416753	61.973658077821916
O	-3.353225182295651	25.394287797086683	63.275949945114604
O	-2.0295380305894453	25.27678322552375	63.65037088513507
O	-3.9847069757151803	26.282124601058356	64.34492807059017
O	-5.337021651072616	26.061497007839655	64.48479496383973
O	-3.1527592965546116	26.081228681559217	65.56919091735782
O	-3.70947487681599	25.307498399480064	66.55964484297216
O	-1.908754033353733	25.42249535106594	65.04486207563244
O	1.762110853113331	26.719079519007558	68.56726399301556
O	-4.173033360072087	29.325586334378574	61.734145347780185
O	-6.756924465786926	27.629657473872907	59.052248931933214
O	-7.878033573534414	31.76675211009306	59.46301516921167
O	0.9583813847651586	25.66245725074177	68.5908127785552
O	-2.032446297780599	29.210153436246117	60.45959156184957
O	-5.314697262843622	29.226228654569734	57.64236893896259
O	-8.92542828349102	29.47396676566563	59.543109962691595
O	0.049324223226558495	25.472918806816352	67.60537655445484
O	-6.329355711425683	29.812907846857318	60.039399533065755
O	-4.340032980711485	27.743814893430184	59.83051239496908
O	-7.167135999442826	30.342175762633655	57.47354662082424
O	-0.11566149372491652	26.294275248039334	66.56395770853973
O	0.6996323583615314	27.38826495789141	66.49971740917258
O	1.6540407834640862	27.5158803445552	67.5019490245699
O	2.5075932181841036	28.6086099751256	67.4217842370113
O	0.4303360223948305	28.03838117374337	65.35123012097226
O	-0.576925601221319	27.41757367011276	64.69858726093342
O	-0.7913329245700742	26.277163430173538	65.39913101625429
