90

O	2.325348529326531	-0.7900262269510203	5.315987928612245
O	1.7088881093265311	0.08532406304897955	4.330890748612245
O	1.182534759326531	-0.2193076769510205	3.0452143786122448
O	1.324745129326531	0.7195716530489795	2.005799658612245
O	2.321028909326531	1.3409919860489796	2.5882024986122447
O	2.095102839326531	2.1360379450489795	3.8743182486122447
O	3.357023239326531	2.3186819410489794	4.574357208612245
O	4.358896819326531	1.4830479020489795	3.9198963886122447
O	3.741829809326531	1.0186298760489794	2.6825233086122444
O	0.49903422132653097	0.7364999430489796	0.8756947866122449
O	-0.184639832673469	1.8251375263489795	0.3978265486122448
O	-0.666911799673469	1.6765711022489795	-0.9807833013877552
O	-0.760784508673469	3.0673905430489796	-1.3334623713877551
O	0.29931663432653094	3.7662442530489795	-0.7395365663877552
O	1.441835869326531	2.8722013830489797	-0.2252051303877552
O	2.6070814193265313	3.2357978530489797	0.5700823936122448
O	1.9444977993265309	3.9041151830489795	1.6338662486122448
O	1.1466593093265312	5.101731733048979	0.8069399426122448
O	0.846749679326531	5.050201453048979	-0.6344707033877551
O	0.16964730432653097	6.022781423048979	-1.2841998713877552
O	-1.065486150673469	5.93061192304898	-0.6715700793877551
O	2.975027929326531	4.989458653048979	2.1508523786122447
O	3.994609579326531	4.110801553048979	2.310153378612245
O	3.1035790393265312	6.2861202530489795	1.5863143986122448
O	2.126233169326531	7.02395688304898	0.9128180006122448
O	1.0888781493265312	7.949935293048979	0.6154741396122448
O	1.342874049326531	9.499510603048979	0.4595309126122448
O	2.598142899326531	10.08376785304898	0.5183108386122448
O	2.920131189326531	10.89110631304898	1.657936238612245
O	3.398148789326531	8.94629920304898	0.49081464861224483
O	2.643515649326531	7.67525668304898	-0.2885375273877552
O	-1.726532470673469	0.8573368140489795	-0.4644241573877552
O	-1.220968290673469	-0.46050550695102066	-0.1775378943877552
O	0.10073260232653096	-0.4207251469510207	0.1033762082122448
O	1.0474267693265311	-1.2275986269510204	0.8115413736122449
O	0.767706442326531	-2.5555368969510206	0.36473725561224485
O	-0.578276390673469	-2.3388532069510206	0.8096044676122448
O	0.06516718432653097	-2.348748776951021	2.2928849886122444
O	1.432764179326531	-2.4936920969510203	2.4843660586122445
O	2.751220029326531	-1.7919274969510206	2.7326414986122445
O	0.41077460032653096	-0.9403897869510205	2.1272078386122444
O	-10.60063492067347	8.45033677304898	4.273609178612245
O	-7.30381088067347	10.00224982304898	3.5421067086122444
O	-4.137574310673469	9.166086593048979	5.581384888612245
O	-1.815165690673469	7.39797753304898	3.4584980286122446
O	1.4018280193265311	6.626890233048979	5.795561218612245
O	3.454117089326531	4.51612079304898	8.145573868612246
O	5.433409599326531	1.1370404390489797	8.170895468612246
O	1.014089609326531	0.04555279304897941	11.399030508612245
O	-0.5812182006734691	3.03225603304898	9.710152828612244
O	-2.263078610673469	3.0848262630489796	6.275314788612245
O	-5.48617058067347	4.889767713048979	5.248015428612245
O	-7.712203430673469	5.00420206304898	2.2049065986122445
O	-8.951846890673469	0.19779859304897962	-0.25511860738775516
O	-5.7091952906734695	0.5602926630489795	1.6448535486122449
O	-6.669061730673469	0.059715563048979625	5.3050411186122455
O	-3.797085370673469	-1.2480631869510206	7.421637818612245
O	-4.319312450673469	-0.47793858695102065	11.062726508612245
O	-1.5660480106734689	-6.93151721695102	-3.0501380213877556
O	-5.188831850673469	-8.10068036695102	-2.797332361387755
O	-6.21199944067347	-9.17010114695102	0.6772572626122448
O	-7.66914791067347	-3.7323082769510205	10.635606708612245
O	-6.54763181067347	-5.253172676951021	7.347637838612245
O	-8.379838460673469	-4.309994676951021	4.1056645386122455
O	-5.96701609067347	-4.33969584695102	1.1924815886122448
O	-5.87062192067347	-3.4644873569510204	-2.4575239413877554
O	-5.240021060673469	0.19944178304897942	-2.8847284013877554
O	-2.327041260673469	0.8288309420489796	-5.121110721387755
O	-2.828114380673469	4.615226793048979	-5.9945560813877545
O	0.5825754893265309	5.057347663048979	-7.618232291387755
O	2.704105519326531	4.022153883048979	-4.917354731387755
O	5.779362669326531	1.6839647746489794	-5.3528129413877545
O	8.886795299326531	0.9540788870489795	-7.319662311387755
O	11.01802027932653	2.7806837330489795	-4.748420631387755
O	9.45593012932653	6.141434293048979	-5.780421701387755
O	9.693319519326531	5.259003213048979	-9.421291731387756
O	12.35123447932653	-4.619621276951021	-1.9695828113877554
O	11.35709537932653	-1.6869215769510206	-4.128807011387755
O	9.172445599326531	-0.2575689969510204	-1.3847586213877552
O	7.10285155932653	-3.43957971695102	-1.200920391387755
O	6.45735839932653	-3.6025079169510206	-4.977567491387755
O	3.373660679326531	-1.3498394169510206	-5.326658731387755
O	1.8014848593265311	0.15668137304897956	-8.415577161387755
O	-1.9040827006734689	0.6267867030489795	-9.126379161387755
O	0.650519322326531	-2.8588110769510204	-12.565227791387755
O	2.9240821093265312	-4.36375227695102	-9.873189131387756
O	1.538140429326531	-5.824081286951021	-6.660838751387755
O	2.983366179326531	-6.350720056951021	-0.5693386213877552
O	4.26817673932653	-6.321762326951021	3.054455418612245
O	5.6427842993265305	-8.79362264695102	7.665138288612245
