76

O	-4.874052056865908	11.974753280097728	2.1336133973454543
O	0.05659574313409177	-1.0392435799022726	-1.6298902526545453
O	-2.2618466528659082	-1.5571821699022725	3.7132403973454546
O	1.2357799031340917	-4.9868398999022725	1.6674958773454547
O	1.8000444031340919	-4.336357059902273	3.8906278173454543
O	-0.3498416368659081	0.22126607009772736	-1.9154197126545454
O	-2.325778215865908	2.151847073097727	1.4132656173454547
O	1.252016533134092	-3.2670270299022723	3.1722600673454546
O	-1.2929297788659082	2.1630605870977275	-0.6657420686545454
O	-3.2851588068659083	4.511846500097727	1.5912738973454545
O	-0.5941460568659083	-1.5015989199022728	1.9017765773454547
O	-2.042629914865908	5.192190740097727	-0.22300180165454545
O	-4.141720176865908	10.746945820097727	1.9765551573454547
O	-3.3890936368659084	5.820524280097728	2.0273872573454543
O	-3.531478586865908	8.073740980097726	1.3476986373454547
O	-2.3138784748659083	6.487751320097727	0.08021295374545456
O	1.6974052131340918	-5.5387014399022725	3.2659207173454545
O	-1.1687398658659083	-0.4173927899022727	1.3853432473454546
O	-0.004796176865908164	-2.063078389902273	0.8454846983454545
O	-4.565053526865908	9.734773280097727	2.8977767073454546
O	-4.247671646865908	10.221171810097728	0.6476644303454545
O	-4.488721426865908	8.342886450097726	2.3773937473454545
O	-3.319013456865908	9.084865820097727	0.3485194843454546
O	-1.1142855898659083	-3.5972990299022722	2.8478232473454543
O	-2.506055483865908	4.146633080097727	0.4824646603454546
O	-3.311268016865908	6.716164550097727	0.9670188003454545
O	0.33873778313409186	-3.644670819902273	2.145401067345454
O	-0.9107848458659081	-0.2555798499022728	0.05747666874545457
O	-0.1678663268659082	-1.3187118399022728	-0.34609910565454544
O	-0.9132381478659082	0.8126458630977272	-0.8332856536545454
O	-1.304583738865908	-2.128206619902273	2.9873256173454545
O	-2.179878528865908	2.7162801400977274	0.26901338134545455
O	10.957757773134091	7.330395180097727	4.074513317345454
O	8.221471073134092	9.463640490097728	2.5075704973454545
O	4.524481973134092	9.850172240097727	3.2699090473454544
O	2.5373997731340925	7.734532900097728	5.784860627345455
O	0.039620943134091924	5.5901304200977275	4.192970157345455
O	-1.6885430230659082	3.3410094800977275	6.7916767773454545
O	-1.6668025305659082	0.6702251690977272	9.504134897345454
O	-2.495869487865908	-3.0827896399022725	9.409764237345454
O	2.904119683134092	0.4734810360977273	9.312364957345455
O	3.1038373231340923	1.4658129857977273	5.688935327345455
O	5.038429223134092	4.313041740097727	4.115055597345455
O	5.813984923134092	5.462268560097727	0.6455879663454546
O	9.603084073134092	5.003747960097727	0.3243287483454546
O	7.503625023134092	1.6001336940977273	-3.1956539526545455
O	5.109760503134092	0.7013337410977273	-0.2796715356545454
O	7.5421822931340925	0.14206250009772736	2.6299718673454544
O	6.160704403134092	-2.230144149902273	5.220452947345454
O	7.745115543134092	-1.7752167299022725	8.539611017345454
O	13.408748473134091	-7.142374989902272	2.3669134073454545
O	9.859481873134092	-5.0448866399022725	3.2670698673454543
O	9.879308273134091	-3.249387619902272	-0.13424275465454544
O	6.384875733134092	-3.8388836699022724	-1.7588423726545455
O	4.789498003134092	-2.6917906999022723	-4.975662162654546
O	3.1323967931340917	0.7127058900977272	-4.4047636526545455
O	-0.4955267368659082	0.7298710040977273	-5.353637582654546
O	-1.402955211865908	4.386247490097727	-5.481085482654546
O	-5.237136786865908	3.961999400097727	-5.631007672654546
O	-5.784187216865908	2.1418837380977274	-2.4367539126545457
O	-7.936394976865908	-1.0886917899022726	-2.5154412326545454
O	-11.32587327686591	-2.436932379902273	-3.5499639226545456
O	-12.704330426865909	-1.8639667299022726	-0.052555796854545436
O	-12.289272026865909	1.9693694640977273	-0.4072162366545454
O	-13.89033552686591	1.6902286170977272	-3.8826411126545457
O	-11.71829272686591	-6.287476519902272	-0.6621111086545455
O	-9.100263706865908	-4.594907469902273	1.5704603673454547
O	-6.292270896865908	-6.906892019902273	0.34215942334545457
O	-7.100724016865908	-6.367109589902273	-3.3457296526545455
O	-5.045854986865908	-3.2154261899022725	-4.069598772654546
O	-5.289189496865908	-0.9415894099022728	-7.077214582654546
O	-2.3621804708659084	0.6614374870977273	-8.902904802654545
O	-2.6195887828659083	3.9426697700977273	-10.936688932654546
O	-5.054942826865908	-3.0183135299022723	-11.998516032654546
O	-1.5209896808659082	-8.284442169902272	-1.0768388726545453
O	-1.2383588548659081	-9.277179019902272	2.5704310873454546
