85

O	-0.008715629666666391	2.7150932005799997	5.698355380033333
O	-0.9208832866666664	2.0156478665799997	4.981461210033333
O	-0.8397297406666664	2.1961721685799995	3.6756550600333333
O	-1.8060986386666664	2.6660338885799995	2.7280721400333334
O	-2.0836930856666664	2.2486497045799996	1.0533442800333335
O	-3.4169293496666664	2.9527767775799996	1.6452625700333332
O	-3.9196269896666665	2.4102184905799997	0.5002701500333333
O	-3.8878484596666665	3.3337761175799994	2.9070700700333334
O	-3.3651873996666666	3.54880274758	4.264909620033333
O	-3.7335274496666666	3.1136364575799997	5.592895450033333
O	-4.746699749666666	4.02516867758	6.547902350033333
O	-4.903738679666667	5.3322969875799995	6.019548510033333
O	-5.483222549666666	6.252337467579999	6.956375530033333
O	-3.4784109196666666	5.31316380758	6.353621720033333
O	-2.7175071596666664	4.395342147579999	5.241889600033333
O	-1.9349764806666663	1.0246311495799998	0.5642631980333334
O	-1.1028408816666664	0.7221837075799997	1.5552139900333333
O	-0.3713030646666664	1.0937539215799996	2.9071422000333333
O	0.8202632903333336	0.3439414775799996	2.7513038200333333
O	1.2843162903333334	0.05005945757999952	1.4524152100333332
O	0.8458014503333335	-0.8813091824200006	0.4845111090333334
O	1.5948857103333336	-0.7721619524200005	-0.7178167579666667
O	1.0955587403333338	0.25001618757999955	-1.5030800699666669
O	0.8271634303333335	0.7692698665799996	-2.7354052799666664
O	0.9812186703333334	2.2176786265799997	-2.4854222299666664
O	-0.05281693966666645	0.7849952295799997	-3.7539143999666664
O	0.28701574033333355	-0.062371092420000274	-4.710772999966667
O	-0.8481213626666664	-0.03631104242000038	-2.8232815799666664
O	-0.9353742336666664	0.8804621905799996	-1.7613280899666668
O	-0.48477763566666643	1.9735305705799997	-1.1963876789666665
O	-1.4984007996666664	2.7111584385799996	-1.6627469499666665
O	-2.189923935666666	2.5181719335799997	-2.9672477099666668
O	-3.588799119666666	2.8102753575799997	-2.5466786699666666
O	-3.3604426396666662	4.09762994758	-1.8107430499666668
O	-1.9570817186666662	4.04567503758	-1.3648085799666667
O	0.5106343303333336	1.2136141005799996	-0.5406571009666666
O	0.8386537403333336	1.2135996855799998	0.7953191500333333
O	-1.7152680596666663	0.12006165757999954	-0.33542020422666663
O	-1.9689581156666665	0.07681530757999955	-3.2534552199666664
O	-0.27665035466666643	-1.1254969924200002	-2.4787081499666663
O	9.515078080333334	9.51798018758	4.476753310033333
O	6.117356880333334	9.304909237579999	6.056055820033333
O	2.8979006303333334	10.00181009758	4.044136320033333
O	1.0213085203333336	6.96471046758	3.6743098100333333
O	-2.1871655136666663	7.99929679758	1.4035223700333335
O	-4.100893059666666	8.33399493758	-1.9678059999666666
O	-5.690480059666667	6.1543417075799995	-4.639954659966667
O	-1.5332358326666664	8.69936535758	-7.193304739966667
O	-0.09610326966666638	9.47689259758	-3.7584474799666667
O	1.8325811203333338	7.0622726475799995	-1.5326912299666668
O	4.836744360333334	7.63431817758	0.7731210900333333
O	7.256400460333333	5.485162647579999	2.7233424100333337
O	9.307566680333334	0.9328569145799996	0.12670003003333336
O	5.859956490333333	2.2324818965799995	-0.6267853339666667
O	6.397667930333334	4.962964127579999	-3.2378173099666667
O	3.467928510333334	5.50290487758	-5.564491719966667
O	3.7638156203333337	8.882718967579999	-7.111658029966667
O	2.6814778403333337	-6.0381458424200005	-4.422831269966667
O	6.584450590333333	3.5227280875799996	-8.732327109966667
O	8.579916280333334	1.7347473004799996	-6.055289519966667
O	6.455884570333334	-0.8912841824200004	-4.464405849966667
O	6.809905900333334	-3.40851454242	-1.7743434499666666
O	5.972241580333334	-1.7455429924200005	1.6111570600333334
O	3.342083800333334	-3.6036939724200003	3.5281892500333334
O	3.329380370333334	-2.0997172424200006	6.975743590033333
O	0.02751313033333358	-3.72079718242	8.123152190033334
O	-2.1678494996666666	-2.3621625224200002	5.559363840033333
O	-4.838409999666666	-4.55053238242	3.699261370033333
O	-7.589712619666667	-7.13113188242	4.024182350033333
O	-10.233207779666666	-4.43768609242	3.9381850500333333
O	-9.019172499666666	-3.0089934424200004	7.350161590033333
O	-8.747999089666667	-6.47231090242	8.744177710033334
O	-10.894187319666665	-6.293519462420001	-3.7626657699666666
O	-10.003879389666666	-6.4242319424200005	-0.12002725596666666
O	-8.424396439666667	-2.9692852724200005	-0.3614609634666667
O	-5.926926949666667	-3.9035971624200005	-2.8186650399666666
O	-4.872357709666666	-7.17586247242	-0.9899675879666666
O	-2.0617746876666665	-5.7308637324200005	1.2058148300333333
O	-0.4734564436666664	-7.319282492419999	4.370369610033333
O	3.1561293303333335	-7.04323277242	5.387442730033333
O	1.5026602603333337	-12.20425563242	4.106696320033333
O	-0.8333605716666664	-11.13540353242	1.2713135300333334
O	-1.9798415536666663	-4.14110041242	-5.285198399966667
O	-3.7563993896666665	-1.2420468824200002	-7.048051939966667
O	-5.285139259666666	0.6467379175799997	-11.704961519966666
