38

O	1.1256554524044171	27.65197733437421	68.1447376002262
O	0.4122965152258422	26.47031944681247	68.11969067171674
O	0.0860249517759708	26.394557500027112	66.73005818347904
O	0.9130858919973547	28.49854132895411	66.96682015806603
O	-0.10549501582643474	28.242864854964463	65.73426190960815
O	-1.021327936550927	27.08833644740704	66.16019690417582
O	-1.750055049854562	28.46930647111771	64.01966112005441
O	-0.44655193442029306	28.961260253181074	64.51352851972229
O	-1.6062117011265018	27.009026638352047	63.96552896931156
O	-2.1056847175451026	26.599274207095174	65.35613132893461
O	-3.4420404093734898	26.55357492870725	65.0932660608247
O	-3.329239466147335	25.503182472660033	64.09716418262863
O	-2.497321415067713	26.208902853209857	63.1870165549653
O	-0.8334937818560784	25.97227698743083	68.55842084864827
O	-3.17046545295733	27.127622378867084	62.27095832523864
O	-2.5285644607023094	28.3697476111856	61.98699671624021
O	-1.5463817619212468	25.239735304926565	67.57805122521253
O	-2.860100390049056	24.66501247522821	67.62289550843724
O	-3.3216182947467177	23.372457537903102	67.2914125742624
O	-2.9357933612756892	23.58837219270402	65.86266411925745
O	-1.5500674416316467	23.487154176661285	65.76393159073237
O	-0.6759285891791004	24.279023000380434	66.76325884818493
O	-1.118560956920453	23.367645944767872	67.60145036204703
O	-0.8225738436151716	23.50675883017389	68.8597063684547
O	-4.412627625872781	27.448757994774923	62.85783438695761
O	-4.58304299363324	25.91544594794895	65.6737818051743
O	-5.566320438176135	25.176712212670054	64.9049164324558
O	-6.182878451035565	24.086274041832894	65.47850951269184
O	-3.46188089983034	22.084058400322448	67.57148728493519
O	-3.47318937278563	21.187628295179643	68.62010013912493
O	-4.40582411410524	20.02908327855405	68.55568797925332
O	-5.666936877778142	20.457214156210107	68.06671403337728
O	-5.733406705633731	21.77408656278315	67.51085290914372
O	-4.507567161736905	21.65718161426564	66.61126647135985
O	-6.25364303168536	19.671208136116856	67.01950350067777
O	0.4104405578887188	23.902156472996523	69.48269295067671
O	-0.7407244522194872	22.29406345753354	69.70103546677748
O	-1.6533178858154316	23.965381757719562	69.90941780536093
