82

O	0.9025243750454539	-0.9882700344545456	-0.11246255238636349
O	0.19669525504545415	-1.2125139004545455	-1.3729033913863633
O	-4.735105294954546	2.0000184695454544	-1.9047131513863635
O	-1.3385829769545459	0.07285408554545433	-0.10689758138636352
O	-0.17767263495454588	-0.36542865845454564	0.5083418766136365
O	-3.103711344954546	-0.32720557545454565	4.576361358613636
O	-1.3074756249545458	0.6613630865454543	-1.4612512213863633
O	-2.584449444954546	0.25450037354545435	0.4056179796136365
O	1.7368096850454542	-3.1126766704545457	4.286970428613636
O	-0.18304726495454582	0.0057476465454543435	-2.0860996513863634
O	-2.6299488949545458	0.7151683805454543	-1.9833993513863635
O	-3.560557304954546	1.0263678795454545	-0.18462173438636353
O	1.4929684250454542	-1.8886586904545457	0.8056466096136365
O	-3.530061164954546	1.6542359095454544	-1.4030510713863635
O	-1.830816410954546	-1.9050310604545455	5.916274328613636
O	0.8364573650454541	-2.2954835804545457	2.0108286286136363
O	-1.287369598954546	-3.745650980454546	8.582261788613637
O	-3.390432484954546	-0.10208084325454565	1.4171008056136365
O	-4.647741444954546	-0.03928933475454566	-0.5407248813863635
O	-5.711253794954546	0.8294742385454543	-0.19523352438636354
O	-2.889157764954546	-0.7177733044545456	-1.7510118013863636
O	-3.9538279449545457	1.1873134095454545	2.0671512386136364
O	-5.148094994954546	0.7157786915454543	2.8040016686136364
O	-5.325385464954546	-0.7395032534545456	2.6114364686136367
O	-4.486082874954546	-1.0677032834545457	1.4575269246136364
O	1.0220971550454543	-2.3986516004545457	3.410744428613637
O	-0.17233001495454592	-1.8837758604545456	4.181834318613636
O	-1.442632827754546	-1.0223163804545456	3.3979238286136364
O	-1.737160522954546	-2.0504617304545456	2.4939864686136364
O	-0.628990137954546	-2.139842520454546	1.5441468276136365
O	-2.349030898954546	-1.4381234504545457	4.689210898613636
O	-0.7897377079545459	-2.796486870454546	6.224453138613637
O	0.3668077450454541	-2.6046944904545457	7.103164478613636
O	-0.10467056495454585	-2.9675381204545457	8.680334878613637
O	-0.33289858495454583	-4.707219850454546	7.958261728613636
O	-0.18897477495454584	-4.117209050454545	6.384423288613636
O	-1.6236158489545458	-4.266250720454546	9.875693418613636
O	2.086245595045454	-4.403820530454546	4.054367878613636
O	0.20366060504545414	-14.086433670454545	-2.4356941413863633
O	0.18845645504545416	-12.784316270454545	1.0650809286136365
O	-2.800754684954546	-10.720742570454545	2.4504905886136363
O	-1.771859748954546	-7.314645570454545	3.0663651986136364
O	-5.040081244954546	-5.281158860454545	4.374852488613636
O	-8.174291184954546	-3.2183155904545457	3.9652849586136365
O	-9.442434664954547	0.25830116954545435	2.9659235886136366
O	-8.795045504954546	-5.4465420304545455	-0.01908487638636347
O	-5.040668854954546	-5.603719680454546	-0.6528354913863635
O	-2.7622461049545457	-8.574238000454544	-1.4489536613863634
O	0.8059522550454541	-9.178863740454545	-2.5882966413863633
O	2.726309195045454	-5.973935510454546	-6.699226881386364
O	0.05682071504545405	-4.654398090454546	-4.2477871813863635
O	-3.237413754954546	-5.961265220454546	-5.682243801386364
O	-6.209121814954546	-3.7533843204545456	-4.7814356613863636
O	-9.352410934954545	-5.932097710454546	-5.183911331386364
O	1.7789528550454543	4.607773579545454	-6.381267501386364
O	-5.979835604954546	-2.959142670454546	-9.655538301386365
O	-2.270617403954546	-3.880619450454546	-9.937726601386364
O	-0.18092868495454595	-1.3724777604545455	-8.028758431386365
O	3.438451775045454	-0.7752494644545456	-7.075466221386364
O	4.187112995045454	-2.713320350454546	-3.833669871386363
O	5.4884356250454545	-0.5553637214545457	-1.0544217213863636
O	7.042095575045454	-3.009195500454546	1.4261397676136365
O	7.674605315045453	-0.38425568245454567	4.180709298613636
O	4.155828355045454	0.7297872865454544	4.533384078613636
O	3.1995628150454545	4.452993899545454	4.921404668613636
O	4.109618885045454	7.786415869545454	6.592669808613636
O	1.362269265045454	7.224552509545454	9.136813228613637
O	3.2818303550454537	4.2275274495454545	10.640902878613636
O	6.507817865045454	6.161249919545454	10.517846578613636
O	-2.8893508449545457	12.054981929545455	4.418046638613636
O	-0.012487754954545904	10.238031129545455	6.0411306486136365
O	-1.787158265954546	6.918899989545454	5.448441138613636
O	-1.898547016954546	7.290950709545454	1.7828411286136365
O	1.823422455045454	8.387474999545455	1.4313792386136366
O	3.4414188850454543	4.925363769545454	1.0444763176136365
O	7.084972015045454	3.9084391795454545	1.4128396366136364
O	8.949903845045455	1.3378530195454543	-0.6424917413863634
O	10.844043145045454	6.528904699545454	-1.2793525013863634
O	7.405631955045455	8.170767109545455	-1.0498532213863636
O	-1.838581480954546	6.247292979545454	-3.1096267913863636
O	-5.543335114954546	5.8041160395454545	-2.314104771386363
O	-10.730002534954547	6.872004199545454	-3.3152754613863635
