33

O	0.8708584122397779	27.97927793717143	67.75611181118093
O	0.325461095030138	26.715868003139065	67.85087074744095
O	-0.2051682896209786	26.440411314631056	66.62890237823203
O	0.6819801148172834	28.850058831048877	66.63347083239113
O	0.10904808612952277	28.539385775907807	65.32227883878329
O	-0.4198056859895623	27.14717953970832	65.45033786033255
O	-1.470403793574096	28.561420298189038	63.25375087134928
O	-0.6934722375682889	29.268877906843578	64.29592094507265
O	-2.1768704746049496	27.29888603759842	63.5382994147909
O	-1.7783463377496647	27.27633757863223	64.9774614326273
O	-2.5716664475104123	28.398793719687443	65.36382497979247
O	-3.6318666433264757	27.417517809184996	65.46132437669651
O	-3.422851506427953	26.886660556062143	64.10795461291191
O	-4.72946146071298	27.402304281467725	63.67227156135895
O	-5.4879178822748225	26.206887294514356	63.75202273058532
O	-4.337198315611775	27.959215174770623	62.50395474911796
O	-3.2951233415542753	29.320552567367596	64.54184060804504
O	-0.4493682283260537	26.14238650016393	68.86695353464354
O	-1.5093762084043756	25.38993388234921	68.333253446091
O	-2.3299576070337467	25.883585122498594	67.20574457692257
O	-3.2892395457305086	24.934079405879107	66.73991035206576
O	-2.403144139599829	24.388255877458427	65.66741863267853
O	-1.7990951454733675	23.54280529212498	66.72953956207505
O	-1.4697635147826045	23.96718177595878	68.11615931732088
O	-2.198885418383719	23.143645732474855	68.92114552330897
O	-3.365623806286196	22.77821721157556	68.31413235585448
O	-4.469697591360184	24.682656916275953	66.20915415483964
O	-4.774231458428117	23.558587727808032	65.4582800158059
O	-5.951247120919275	22.889610531041246	66.17488035723967
O	-6.985219510276811	23.804747297059276	65.86503490421201
O	-6.793449290498665	25.071696796947567	66.35417737656529
O	-5.467427319510122	25.251198198038004	66.8684732837774
O	-7.527158574890139	23.840506750012757	64.55629776281026
