90

O	-1.6194274112500002	-0.5669299925423075	-0.6737934123461544
O	-1.9134612292500002	-0.9340813865423074	0.6241155416538455
O	-0.6585313406500002	-1.4873288165423075	1.0270295696538456
O	-0.1832040622500002	-0.4825734755423075	-0.9557373523461545
O	1.0431509607499998	-0.6752595105423076	0.0839754976538456
O	0.42492478074999984	-0.6835387135423074	1.4878395392538455
O	3.05858497075	-0.43493936954230755	1.3393564596538456
O	2.4957157707499995	-0.6212475035423075	-0.014715712346154541
O	2.4426121307499997	-1.4910465565423074	2.1525313846538454
O	1.1987612307499997	-0.7761338165423075	2.6937152576538455
O	1.7616325507499997	-0.1666646345423075	3.7748055876538453
O	2.1430234207499996	-1.4084568065423075	4.423466147653846
O	3.0099642407499996	-1.8838314765423076	3.4032063076538455
O	-2.17426336925	-0.32046216754230755	1.8682930296538456
O	4.373268320749999	-1.3569065765423074	3.412331987653846
O	4.9791301707499995	-1.0633099265423074	2.1544454276538456
O	-1.45099950625	-0.8726871965423075	2.9535985576538453
O	-1.3862336722500002	-0.46580422954230755	4.327798547653845
O	-1.5299056912500002	-1.2025588065423074	5.523678567653845
O	-0.3057770792500002	-1.9965941665423075	5.195320297653845
O	-0.6322004521500002	-2.9098186965423074	4.195471177653845
O	-1.3893448042500003	-2.4026202765423075	2.9467469776538455
O	-2.38557225925	-2.3206585765423076	3.8010945076538456
O	-3.4918543492500005	-1.7743461065423074	3.3913975876538456
O	4.33383540075	-0.1407611795423075	4.126442537653846
O	1.2905643307499999	0.3664204964576925	5.015776577653845
O	1.9003411707499998	0.0713286274576925	6.298277657653846
O	1.1023821007499999	0.005683039457692496	7.419509207653846
O	-2.28557455925	-1.8171220765423075	6.423325347653845
O	-3.5718851692499998	-1.8691972465423077	6.9193061176538455
O	-3.76372368925	-2.1146314465423073	8.375033797653845
O	-2.82287449925	-1.3540960665423074	9.116104447653846
O	-1.76179559925	-0.7393269005423075	8.378728557653845
O	-1.36051477625	-1.9694812465423075	7.5716975176538455
O	-2.09827662925	-2.0469645565423074	10.142540347653846
O	-4.18882787925	-1.9182948765423076	2.1430856306538457
O	-4.75910219925	-2.1882835565423076	4.0300702076538455
O	-3.9817473992500005	-0.47563853554230756	3.6665851576538455
O	-6.69363999925	-13.108523476542308	-0.46465337234615456
O	-6.9031848592500005	-11.079451976542307	2.7344118676538454
O	-3.86953641925	-10.057267076542308	4.7892197676538455
O	-3.1131210092500003	-6.548588126542308	4.830291907653846
O	0.06709075574999979	-6.005369606542308	6.983192677653846
O	3.7051735907499994	-5.604643836542308	7.432328537653846
O	6.62667846075	-3.3757202765423076	6.698106067653845
O	7.631692290749999	-7.5271468465423075	3.403745077653846
O	4.07757978075	-8.590835586542308	3.9646000376538457
O	1.0930656607499998	-7.297403356542308	2.0174049736538455
O	-1.9043943592500001	-9.317554236542307	0.7148268536538456
O	-4.92055717925	-8.610464156542308	-1.4594423223461543
O	-4.08586609925	-5.816602246542307	-6.297116752346154
O	-1.8361695792500001	-5.285769276542307	-3.350848192346154
O	0.7428514607499999	-8.139576996542308	-3.412004282346154
O	4.045487780749999	-7.152776096542308	-1.7147363223461545
O	5.84523531075	-10.365583876542308	-0.7568749823461545
O	1.1424062807499997	3.5364011034576928	-6.463489262346155
O	0.8229546407499999	1.6088966134576925	-9.702710492346155
O	3.447758630749999	-0.9867421965423075	-10.497981492346154
O	6.35360924075	-10.918550076542308	-5.430714912346154
O	5.49621322075	-7.355944556542307	-6.481333442346154
O	1.9974583707499998	-6.631693906542307	-7.860490102346155
O	0.8686640307499998	-3.1435766465423076	-6.893667812346154
O	-2.15513784925	-0.9139344765423074	-7.084031322346155
O	-4.53798857925	-1.7117071165423074	-4.306636372346154
O	-5.43021250925	1.2920351934576926	-2.2998318323461544
O	-8.49982466925	0.12813283365769249	-0.34039331234615444
O	-8.720980079250001	3.1395870934576924	2.0742064536538454
O	-5.420715529250001	2.9069417034576928	3.5202483476538458
O	-3.1428180592500006	6.014629223457693	4.073844027653846
O	-2.9636108092500004	9.456158123457692	5.420732377653845
O	-1.4983240152500001	8.132817843457692	8.704907387653845
O	-4.82583126925	6.468420043457693	9.590358947653845
O	-6.76021313925	9.490571393457692	8.443686577653846
O	10.66707960075	8.713017133457692	2.9689340076538455
O	5.42246914075	10.453076823457693	5.243273187653846
O	1.73095435075	10.053803803457692	6.060411847653845
O	2.0646235207499997	6.305469133457692	6.042990817653846
O	3.4372236207499993	6.220082533457693	2.4477611076538457
O	0.6466758407499997	8.383138993457692	1.1000279116538456
O	-2.0572462492500003	5.856607623457693	0.2941579276538455
O	-5.687698319250001	6.318643413457693	-0.5092580423461546
O	-7.768104029250001	4.412653943457692	-3.0320643123461544
O	-7.130574779250001	9.776057223457693	-4.292872192346154
O	-3.5171490592500003	9.898223623457692	-3.0339182223461547
O	-0.9042784572500002	7.467378273457692	-4.316970582346155
O	2.71110923075	7.741947523457693	-3.1810860623461545
O	4.178655980749999	4.393691443457692	-2.3693694223461543
O	7.11609191075	2.6965109034576926	-0.7600536823461543
O	10.09099020075	3.3183935534576925	-2.823367102346155
O	12.31738400075	1.3621389134576924	-0.4177524923461544
