40

O	-0.5185273211412109	21.58241678945062	70.1426333493999
O	-1.4340970927742933	22.54996595741938	69.89607410389097
O	-1.2255040131572095	23.223243347104482	68.77916268990441
O	-2.0556500719666193	23.41779359012089	67.62783302503675
O	-2.2329060681305952	24.778304354706087	66.54451755372173
O	-3.5319799934861145	23.821598499641723	66.40028865245809
O	-3.989665333102858	24.944206254237162	65.7771048808999
O	-4.065691524564719	22.72532846600894	67.08762225941499
O	-3.639643386549352	21.727175018854123	68.08025107162038
O	-4.160838499749914	21.231267957878202	69.33365535512878
O	-5.1519164789275775	19.895431586626557	69.38612348891853
O	-5.1293087956983925	19.196849801097976	68.15166984208992
O	-5.688121441950825	17.87787718486289	68.24089186762853
O	-3.7465558212385455	19.04415598109275	68.60796910857836
O	-2.9930058123600243	20.475297436978167	68.40470584196991
O	-2.169804231745175	26.044494044735934	66.93479973812708
O	-1.4592022936527118	25.688188080592813	67.99969340791581
O	-0.8095864536739776	24.57710041068605	68.91860871242262
O	0.30776370874531395	25.29431038086416	69.41203870081506
O	0.8467073025242033	26.345284418838865	68.64144359058929
O	0.3979407119460326	27.66378455860569	68.40322712217453
O	1.2525776414268612	28.347356389811996	67.4971598418305
O	0.9283010189957537	28.021910703233235	66.19341760531731
O	0.8189507650479135	28.374585860900904	64.88042537231964
O	1.099017315839924	27.090065992804153	64.20538173380753
O	0.03387065247278748	28.97104293770857	63.96398566425638
O	0.3642701566320064	30.23886046301148	63.783516263426485
O	-0.91670938339499	29.012427200625634	65.08995879960352
O	-0.9984711959687826	27.632040333922685	65.34230487824327
O	-0.48732476671841596	26.438007769561054	65.169073793924
O	-1.3772948032303773	26.122368389906484	64.22179195834525
O	-1.9729389707754277	27.065342156343107	63.235293720608425
O	-3.3648875110816685	26.535775396732088	63.20223594717328
O	-3.068482335069544	25.077093866515828	63.014028816128736
O	-1.72025886888628	24.879883021099836	63.5747249071445
O	0.3664078431527023	26.652780307561997	66.27510905652674
O	0.5793385239266267	25.831012113339078	67.35760008971332
O	-1.969131579316966	27.318124881775873	66.81842552308805
O	-1.9799558342553014	29.159924532210937	64.54052865809423
O	-0.49077842906257585	29.666459390681386	66.10112679347806
