84

O	-0.30239946677169793	6.5919122070018865	1.5634367539566032
O	0.5359320782283021	0.30473510700188666	-1.0064084000433968
O	0.09720721822830214	-1.0323382829981134	-1.410210934043397
O	-1.365931548771698	-1.1086712729981134	-1.3027915580433969
O	-2.008844117771698	-0.025163172998113437	-0.6382920565433969
O	-1.741633621771698	1.1905078680018866	-1.3078820810433969
O	-0.30453904377169794	1.4627137750018866	-1.098386581043397
O	1.389371518228302	3.3044281070018866	-0.10623292704339687
O	0.19505054822830203	2.678628533001887	-0.8215430650433969
O	2.6303617182283023	3.015911347001887	-0.4245268470433969
O	2.8195584082283016	1.6346313778018866	-0.8566191750433969
O	1.6442562382283021	0.9507970990018866	-0.4457832490433969
O	-0.607299564771698	4.670035517001887	-0.5261721151433969
O	0.22888971822830206	5.5906765670018865	0.2612346519566031
O	1.189780478228302	4.571147837001886	0.6253503239566031
O	0.522445748228302	3.9712384870018864	-1.3698980580433968
O	4.379996198228302	1.2694573890018868	0.04049993995660306
O	-1.609433207771698	0.5354556470018865	0.5892220239566032
O	-1.492370244771698	1.8935953650018866	0.8938122939566032
O	-2.802997821771698	2.5305311570018865	0.7534639639566031
O	-2.621883651771698	3.6681821770018868	1.6631874839566034
O	-1.791542291771698	3.942893847001887	2.825073373956603
O	-0.382410807771698	3.6175840770018866	2.511006823956603
O	-0.5513714307716979	2.3633424080018868	1.9802661639566033
O	-3.939669661771698	4.367045537001887	1.544065633956603
O	-3.2686942517716977	5.664632867001886	1.248800633956603
O	-3.653343981771698	6.682692137001887	2.286202333956603
O	-3.055785881771698	6.256990777001886	3.523150813956603
O	-4.206481781771698	5.925968687001887	4.336487603956603
O	-2.318087451771698	7.253636307001886	4.244241253956603
O	0.9205687982283022	1.8966911630018866	1.9276147839566034
O	-8.519880711771698	2.0160705100018865	-12.124929726043396
O	-9.822395201771698	3.1991509170018864	-8.744484986043396
O	-8.113008311771699	5.813383207001887	-6.5683400760433965
O	-6.741624031771698	4.326126917001886	-3.3662653960433966
O	-5.070663561771698	7.307435727001886	-1.7020672360433968
O	-2.127117388771698	9.743551717001887	-1.1573529870433967
O	1.274527188228302	9.770188727001887	0.801806393956603
O	2.915048618228302	10.030679427001887	-4.564191256043396
O	-0.677581408771698	8.928901707001886	-5.413407046043397
O	-2.0007526837716982	5.3639039270018865	-5.503620946043397
O	-4.270464951771698	3.7001649770018865	-7.951281446043397
O	-5.491011791771697	0.23366655700188654	-8.615463556043396
O	-1.697970039771698	-3.9890711529981138	-8.704708536043396
O	-1.2298127458716979	-0.9290544829981136	-6.536908466043397
O	0.3425624382283021	1.6732978187018865	-8.934161306043396
O	2.4565694482283025	4.275461647001887	-6.991279046043397
O	2.7655963582283016	7.373787067001887	-9.248159596043397
O	4.8473405782283026	-5.614860132998114	-0.3198185610433969
O	5.729478018228302	-7.1139022429981145	-3.6342631560433967
O	7.758267118228303	-5.073768642998114	-6.078494726043397
O	5.483656408228303	4.600918897001887	-11.939959526043397
O	6.075708438228302	1.7656528642018867	-9.472075326043397
O	3.987762818228302	-1.4135037929981136	-9.699057456043397
O	3.3263138382283026	-2.9267580829981137	-6.293501986043397
O	1.3889612682283021	-5.767462152998114	-4.7246377260433965
O	-2.204430911771698	-4.726470582998114	-4.188193356043397
O	-3.3335462817716977	-5.050305832998114	-0.6166737657433969
O	-7.131969351771698	-4.745032032998114	-0.8468276300433969
O	-7.814284441771698	-4.511724082998113	2.906664233956603
O	-5.8286725917716975	-1.4598763329981133	3.516940283956603
O	-3.4979084017716984	-1.4860032629981135	6.686691783956603
O	-3.2629990617716977	-2.0268827129981135	10.377686473956603
O	-3.9209797017716976	1.6600549263018867	11.001316173956603
O	-7.4973073117716975	1.3700528040018867	9.641768573956604
O	-7.965370851771698	-1.8468418429981133	11.605191973956604
O	9.536604258228301	3.582399437001887	9.638324373956603
O	7.617641218228303	0.5055437870018866	10.790420473956603
O	4.191318838228303	1.7477539674018867	11.884764773956602
O	0.5380818782283021	0.6271890570018865	11.630545773956603
O	0.007036018228302021	2.520526517001887	8.401540313956604
O	2.9886704582283024	0.7111652010018866	6.703232103956603
O	1.7329599082283018	-2.7688567329981133	7.654817993956604
O	-0.7391971767716979	-3.5693272329981136	4.8303202839566035
O	-3.304087761771698	-6.255953632998113	4.582177083956603
O	-4.205362401771698	-8.279085512998114	1.5357830239566033
O	-1.879229704771698	-11.295410002998112	5.535499743956604
O	0.571285418228302	-8.558359102998113	6.545480903956603
O	2.882261058228302	-6.960002052998113	3.998092533956603
O	5.460011438228302	-4.386407292998114	5.080348853956603
O	5.599317288228303	-1.4641157329981136	2.7255429639566033
O	7.053795948228303	2.0225238150018865	2.2863959939566034
O	10.749582158228302	1.7771222653018866	1.9852485539566032
O	11.067270358228301	5.572360277001887	1.593523183956603
