31

O	-4.576957963704226	25.246040474802804	62.74390712906727
O	0.4561206235107161	28.464967347512204	66.08188997874034
O	1.3794568049846343	28.685123458584656	67.1964673974204
O	1.2721639688444606	27.56088385430377	68.13599614029111
O	0.18991981825983079	26.659603795004692	67.92309284094434
O	0.2834069131420141	26.07313591037838	66.64054696909378
O	0.01986677100518891	27.160891353002402	65.675891622886
O	-1.6140005015475885	27.862891226927534	63.65517703181061
O	-0.7351938161000893	27.018361835989573	64.57396166227666
O	-1.1667670437319293	28.936635180935365	63.04553306009615
O	-0.1805946892407096	29.68357161081641	63.82011912870981
O	-0.2940797812525059	29.18738845978177	65.14626922740955
O	-1.876454857010748	25.421775629600127	63.654642784048654
O	-2.9568724037283154	25.842512969865002	62.747736012613096
O	-2.8221654047264852	27.24688633829165	63.07164892223344
O	-0.7823722534096373	26.474070551893565	63.23970437763434
O	-0.7895667145059948	31.384067005172604	63.48753931682664
O	-1.147165031320911	27.027648619166744	67.68359238871064
O	-1.9992662258129277	26.507853347037496	66.70647474333138
O	-2.1829523185257718	25.075085461842143	66.9443089480919
O	-3.485801473210537	24.883514938182145	66.29582310913716
O	-4.628806618043161	25.73183101169669	65.9978110700432
O	-4.164750091801882	26.962619643363006	65.31963213487916
O	-3.1541989042859453	27.325930605824855	66.17411849903183
O	-3.7153379571483787	23.418837181964513	66.49878136157437
O	-3.983289213304549	23.22008787327977	65.04625833709324
O	-5.366982078134116	22.663217392847947	64.85680728001444
O	-6.285371537831971	23.701571220922183	65.23984905449241
O	-6.912601238015967	23.152651666046633	66.42326091762148
O	-7.341219765666376	23.985186131668822	64.31129113441744
O	-2.864141784474097	28.750805679287055	65.65187192671462
