11

O	14.23585064624032	10.777838756955246	55.18242108340604
O	15.445763448254581	10.922913748459928	54.777877531115855
O	15.626032055578264	10.32361804460276	53.462569886723635
O	15.30480350381599	9.062083372173232	53.46754018149435
O	14.719108293408324	8.631097123739272	54.7558015391154
O	13.667111560049529	9.483080015197356	55.18822877840433
O	12.60921290010412	9.1843949268295	54.34767940307494
O	15.54926136480811	7.8648909139307905	55.2319765982645
O	15.810056120195014	7.0966521584548	54.034116210407696
O	15.683101696623366	7.818785435987856	52.96966776056698
O	16.44877042566154	11.586796761177737	55.377203600838676
