19

O	15.213459251502185	11.276316002911358	60.26371385369381
O	16.54505646446924	11.747453154792552	60.517963889287834
O	14.406497765264756	12.575136610620541	60.24594342228377
O	15.088059915351462	12.926683128880134	59.047087196503185
O	12.985662156964876	12.680352006246926	59.827139601943735
O	11.959436283126516	12.311295652267916	60.59735901313481
O	12.921915996281644	11.66682614143663	58.75073479269559
O	13.151422841163976	10.619162434620526	59.580541117857955
O	14.009217281232413	12.45451328597444	58.12651103662374
O	12.86292902771297	8.472778765591457	55.44895769267265
O	12.136006418518129	8.930237971355817	56.462750983797065
O	12.656489825507101	9.95250600649522	57.13423442136671
O	13.893531216445206	10.502011769151567	56.86551346561195
O	14.406960745677209	10.369853002174334	55.55727781222385
O	13.84851516398898	9.2282216935149	54.96006832646069
O	14.560669762377017	8.639973684500205	54.15696235676847
O	14.020655488850808	11.691753085520252	55.41941548446762
O	15.101210724605604	12.38373556451533	55.83607737649271
O	14.664543116640857	11.813170240360131	57.03191207901717
