73

O	2.9443258604016127	-0.7789683722903227	-2.5020071580419354
O	3.5583820304016127	-1.7790636822903225	-2.051235188041935
O	3.596928610401613	-2.897870992290323	-2.8945028880419352
O	3.740907130401613	-1.9293367622903228	-0.6840760830419351
O	3.3544159904016126	-1.0349210622903227	0.12257714795806493
O	3.231813860401613	0.32841539370967726	-0.4501201330419351
O	2.574640250401613	0.28439041670967724	-1.6986258180419351
O	1.738591790401613	1.2144987807096772	-1.970896128041935
O	3.295426950401613	1.2275764847096773	0.583955432958065
O	2.284284350401613	0.7468292807096772	1.2335563019580649
O	2.934240930401613	-0.6280518922903227	1.406922441958065
O	2.444448750401613	-6.711088022290323	10.582322111958065
O	3.781322740401613	-3.198919112290323	10.557588811958064
O	0.054978622401613	-5.680473072290322	7.683840031958065
O	0.5136981004016129	-2.1536911622903228	6.348876321958064
O	-0.814000722598387	-1.5527016122903226	2.8007345019580647
O	-1.018286922598387	1.0931764437096771	0.1805986079580649
O	-4.599864079598387	2.261167277709677	-0.5314052910419351
O	-5.814260759598387	1.5759085677096774	-4.028034198041935
O	-4.338860199598387	7.138592247709678	5.629697151958065
O	-5.072251979598387	5.644143237709677	9.034230891958064
O	-7.934204779598387	3.5760750477096774	7.699428851958065
O	-9.170041849598386	-2.481414682290323	5.907694301958065
O	-9.341627999598387	-8.516241192290323	4.295530471958065
O	-13.277770549598387	-3.9494250922903227	3.8948002019580645
O	-11.827534949598386	-5.269125342290322	0.611734820958065
O	-5.640094809598387	-7.2847513122903225	-0.7519579870419351
O	-3.2768284795983873	-7.812288492290323	-3.6933925880419354
O	0.19845282740161296	-9.201219702290322	-2.961826848041935
O	3.132090130401613	-8.062179022290323	-5.155258088041935
O	6.722378530401613	-9.077727902290322	-4.288092828041935
O	8.348231800401614	-5.618658102290323	-4.119892028041935
O	10.543612550401614	-4.331474252290323	-2.6289145680419352
O	10.350573550401613	-1.1951333522903227	-4.804112328041935
O	7.027447040401613	0.7013606587096772	-4.840989468041935
O	4.664777010401613	0.6751500287096772	-7.8683051380419355
O	4.6244697304016125	3.096008107709677	-10.635318688041936
O	1.484023810401613	5.030295147709677	-11.586864188041936
O	1.211816190401613	-0.2850554162903227	-12.088500488041936
O	-1.156698654598387	1.2350433847096771	-9.533687258041935
O	-3.8003139995983872	1.6559154077096774	-12.223054088041936
O	-3.375324739598387	-2.018454442290323	-13.216412888041935
O	-3.826984059598387	-3.1522987222903227	-9.597111608041935
O	-6.8923466395983874	-0.8794409122903228	-9.173891318041935
O	-7.731535749598387	-4.653100652290322	-5.575134548041936
O	-8.356107509598386	-2.220232252290323	-2.732259358041935
O	-5.0402949895983875	-2.4614378722903227	-0.9350730650419351
O	-1.483683603598387	-3.5686807022903224	-2.0896614880419353
O	1.2550271204016128	-5.095253182290323	0.0708322219580649
O	4.267977370401613	-7.440976202290322	-0.08790321844193509
O	3.305875580401613	-10.160594282290322	2.3599766219580647
O	0.5110686204016129	-12.185475982290322	4.061621311958064
O	-4.328511689598387	-3.9392508422903223	6.629195131958065
O	-3.529598779598387	-0.5091114712903227	7.940709091958064
O	-3.747272739598387	1.8787410577096773	4.988250651958064
O	-0.6063540503983871	3.886604837709677	5.562620681958065
O	-0.594211839998387	5.776644427709678	2.2806673819580645
O	-2.671719799598387	6.305362297709678	-0.792156135041935
O	-0.749097100298387	4.940646657709678	-3.765520798041935
O	0.06607786340161292	7.743076857709678	-6.3087646880419355
O	-2.363096359598387	7.395424007709678	-9.228432288041935
O	4.418828570401613	13.082402417709677	-3.9413834680419355
O	6.046634760401613	9.632084637709678	-3.7182037480419354
O	5.514859420401613	6.581040127709677	-1.516662568041935
O	8.237643770401613	6.296225767709678	1.110141861958065
O	9.150911140401615	4.115131047709677	4.070791951958065
O	9.310657020401614	7.029829157709678	6.535097431958064
O	5.696196290401613	7.970857867709677	5.839585591958064
O	4.659262310401613	4.2781822977096775	6.103543111958064
O	6.403245840401613	3.905387357709677	9.489138991958065
O	4.8580201804016125	7.243402637709678	10.609007311958065
O	1.2932584204016129	6.064887397709677	9.886939811958065
O	2.2809147204016127	2.857107947709677	11.652981011958065
