12

O	15.101316430331726	10.976460818067586	54.96666162044272
O	14.586739578331668	10.816029295672081	56.01191587131895
O	14.679014798256993	9.986117427427306	58.266440208828485
O	14.49691217412281	9.656619518646629	56.703681999607305
O	13.876821125823435	8.82542078903901	55.74985940469573
O	14.277631943138914	8.849234312698684	54.51637429722778
O	15.298255807672188	9.73924025326916	54.36071414809944
O	14.064447981357194	8.15653544159658	53.52882112358459
O	16.559788646763266	9.621287994535027	53.865495608713935
O	17.45720591479761	10.237019311257292	54.82708162493519
O	17.438129605073698	11.632835913086486	54.56717997462281
O	16.12682961324571	11.988554307484566	54.87881848474451
