33

O	18.489109255577336	2.2266397947635634	34.08252337214085
O	13.932959289864634	0.8823722945275696	36.72217388263392
O	19.53470010052355	-2.055446750131011	36.860397381380956
O	16.49639552769205	-0.2598609095921298	34.451019158999145
O	13.009047689059546	2.7346895416752597	37.175205021892026
O	17.342615327956256	2.1180966214510555	38.626284600348406
O	18.156234024832415	-2.877243715154352	35.351572930463455
O	13.872551264921405	2.9532347520474063	41.05749484916619
O	15.3160158010093	4.615396863308589	36.903196052418615
O	14.305266282242274	2.238171768339776	39.73817001536282
O	16.854426447600694	3.428740899106386	38.387160464584724
O	16.348898452652296	1.2562377034064358	36.89690908362579
O	11.782073331096402	2.7370044295280183	40.7238618299819
O	17.219151478212403	3.027027785713489	34.126465100881134
O	16.413127642234723	-0.9124593551268938	35.763125597893264
O	17.037549240040313	3.860885374994817	35.35527169997381
O	15.677965534720546	4.454409958446512	35.530858430757576
O	18.386727490442922	0.2826994110714458	36.950247444503674
O	14.546522285641734	1.9138144008458062	35.87401051449513
O	17.588163411769095	1.478294214397077	37.412454170982855
O	12.712711556497098	2.811000993117842	41.709245986568135
O	13.18081841470178	1.5489544961494341	39.19455453378824
O	15.74289386550064	3.4757913863477348	37.595044889714124
O	15.411622363511793	2.322729636422379	37.067339195703404
O	12.247063196065533	2.475003092035383	39.338827554249356
O	17.742275222336573	-0.8098617955340228	36.33491615297678
O	13.436711497519399	1.5530790616238392	37.71473774406659
O	18.758532569687027	-1.7597058357066016	35.89201119323404
O	12.337245309391873	3.4198974484462727	42.98276723719854
O	11.134156272195753	2.6241837170630644	38.529757913453544
O	11.086254618843629	2.9318371582546776	43.35986088139536
O	12.181483356987659	4.776969130371391	42.99660491404582
O	13.109172867229216	3.2592001611895522	44.060645500522696
