85

O	4.343806083726316	-1.3787976065789473	3.9958727116842105
O	4.9777165337263165	-0.19019514657894732	3.881909561684211
O	3.1079591437263163	-1.2593140665789473	4.499049061684211
O	4.3311353437263165	0.7469419274210527	3.172909361684211
O	2.387207663726316	-0.23025725657894736	3.967763151684211
O	-2.9397715162736837	1.7766948364210526	3.976855151684211
O	-4.385329336273683	0.7461595704210526	2.678861801684211
O	-2.360514456273684	2.5441975534210526	0.801616007684211
O	-1.9572257662736836	0.8226230734210527	3.624694141684211
O	-3.3807684362736836	-0.10100853657894726	2.4251038516842107
O	-1.9329486162736838	1.2667987374210528	0.546097594684211
O	-0.5257926092736837	3.1208573434210525	2.042598721684211
O	-1.1212710882736836	-1.2246139665789475	2.403130691684211
O	2.016585383726316	-1.2449604565789472	1.596162601684211
O	-4.184129986273684	1.7966716584210527	3.454642551684211
O	-1.7427557462736838	3.480674473421053	1.547542631684211
O	-2.2307942262736837	-0.3211344465789474	2.929676401684211
O	3.0085996037263163	0.7198889714210527	3.265499841684211
O	1.1220536537263164	1.1716804863210526	1.7153153116842108
O	1.0122711237263162	-0.2124630465789472	1.932498861684211
O	-0.0660200082736837	1.8326960234210525	1.792204971684211
O	2.0901980437263163	-2.422302356578947	1.962464451684211
O	3.2351042137263164	-0.8643995165789473	1.023465231684211
O	2.4353135837263165	2.0631267024210524	2.311369841684211
O	-0.8185542332736837	0.8516963494210527	1.2097995116842108
O	-0.2986817722736837	-0.27957207657894734	1.746079981684211
O	-5.546397116273684	2.798868753421053	3.795637711684211
O	-2.9592069862736836	4.605799783421053	2.231587391684211
O	0.5119480037263162	-13.396583076578947	0.674879584684211
O	-0.1812195242736837	-11.516711376578947	-5.935418448315789
O	9.893448863726316	-1.2674294165789475	-7.2214122083157894
O	6.393124163726316	4.211830013421053	-6.181320008315789
O	4.963464263726316	6.742862943421053	-8.690111688315788
O	6.1540981437263165	10.035450813421052	-7.135156248315789
O	8.869318363726315	7.013647323421053	-2.702803598315789
O	11.680999463726316	2.8004594534210527	-2.050769378315789
O	11.424371263726318	4.129533153421053	1.5266498616842108
O	14.670495563726316	2.3261104334210527	2.060769891684211
O	13.882723463726315	-1.1089513465789473	0.604222003684211
O	0.6314843537263164	12.073904823421053	2.745539931684211
O	1.0510723337263164	11.618797123421054	6.520530851684211
O	3.927178833726316	9.215689023421053	6.111027041684211
O	1.9290482037263161	7.006023093421053	3.763507631684211
O	-1.0854784212736837	7.195011903421053	6.1874065516842105
O	0.9100780537263162	6.331313743421053	9.174329251684211
O	2.2458269437263163	3.6426560034210524	7.174141051684211
O	-0.7842805822736837	2.135287413421053	6.464576321684211
O	-1.6371454912736838	1.6492538794210527	10.028153471684211
O	1.0687491637263162	-0.6994905865789474	10.81173687168421
O	-0.012189425273683718	-3.094868466578947	7.854783821684211
O	-3.5182517162736837	-2.618260076578947	8.868603791684212
O	-2.8525651462736836	-3.883167396578947	12.415889771684212
O	-0.7130611676736837	-6.765974096578947	11.051103371684212
O	-3.604722626273684	-7.722602456578947	8.76671771168421
O	-6.037306476273684	-7.474736506578948	11.71949777168421
O	-3.824630366273684	-10.107311976578947	13.48376367168421
O	-11.755587436273682	-3.7438599065789475	7.657570711684211
O	-8.908148856273684	-6.133460406578947	4.749348301684211
O	-10.427170916273685	-4.321798156578947	1.702626961684211
O	-6.4492877762736835	-5.898030626578947	-0.740593323315789
O	-8.303816536273683	-6.004981406578947	-4.039215128315789
O	-3.1089311062736837	-6.939688526578948	-4.558517338315789
O	-4.647587306273683	-4.268190276578947	-6.874681438315789
O	-1.8682022062736836	0.5094563384210526	-8.421501488315789
O	-1.3890952742736837	-1.6956640465789474	-5.421762278315789
O	1.2368691837263164	-4.104291346578947	-4.205815728315789
O	2.8102571837263164	-3.2472457265789467	-1.1160525683157891
O	5.285364623726316	-4.7366645765789475	1.404573681684211
O	4.623259623726316	-8.344735986578947	0.845921965684211
O	4.522138543726316	-7.650697066578948	-2.8794031583157893
O	7.957602373726316	-6.026749036578947	-3.184524938315789
O	6.658159573726317	-2.600220046578947	-4.114298038315789
O	3.902610603726316	-1.2385791165789473	-6.252789128315789
O	2.3384035737263162	2.0978044894210526	-5.544444388315789
O	0.5467005737263164	3.6512353034210525	-8.519396468315788
O	-3.0698936362736835	4.676310563421053	-8.10352276831579
O	-2.125035066273684	8.009004453421053	-9.653033688315789
O	0.4680934437263162	8.756636203421053	-6.9562703483157895
O	-2.0812948562736837	8.110141093421053	-4.258310198315789
O	-1.9412917262736837	13.300763423421053	-2.274027338315789
O	-7.294227796273684	4.6010278134210525	-1.4776555783157892
O	-10.828917336273683	0.8600638944210527	-2.771416478315789
O	-9.416722596273683	0.8523094204210526	-6.321118238315789
O	-11.225875236273684	-3.649827316578947	-6.491122198315789
O	-11.464952136273684	-3.291813786578947	-10.27140802831579
