50

O	5.398984573566025	25.927312693020617	18.32041370355029
O	4.276742044600768	26.61507157125961	16.575908507785492
O	6.2067224007086805	25.748588416355332	17.34567642037905
O	5.876503078817429	26.25051361578942	20.726700546619167
O	5.548142822478525	26.67475319869622	16.520142392864827
O	0.2611616571581026	27.579898668775872	19.569965149565164
O	5.256736961326693	27.00069446992952	18.81903007615632
O	-0.1603301761958047	26.4440240703225	21.298614573776856
O	3.7681091180801523	26.964615730266278	17.468959356789377
O	2.1020908623821426	27.919375653128014	21.468069250806625
O	7.3131761830384825	26.6814619658407	17.87792468753865
O	1.5223927481929387	29.68289060317915	20.313047086443795
O	5.665614556306649	28.082623542630692	17.200696792410113
O	-2.093601583380038	29.422442221357365	19.62562591568293
O	6.606066855301608	27.41842597437401	19.04863781352561
O	-3.4436085014238236	28.016600305480647	19.16631867713483
O	4.278315226300953	28.340560420186677	17.54574212576732
O	6.323499605758721	26.895586886628916	15.50452905379111
O	6.296893148012885	25.958101892524386	19.478688121758164
O	2.4862486918551645	27.18998771489148	18.374075268302956
O	5.37881120678605	28.304903509730728	19.534662709798067
O	1.2042820949668345	27.04567996273462	18.651096977632925
O	5.116057892565051	27.058914578204647	20.454089303932665
O	-0.07902204776969324	27.207975583202398	19.448093679680643
O	0.5855251206019068	26.12455236162092	20.32074450212107
O	-1.1958756759554996	26.20655908500087	19.065444312591275
O	1.1011514455811575	25.433931093142174	19.24591921919479
O	2.201740008472351	25.3737399489843	18.441581947192777
O	0.4140713459800365	25.313192301892997	18.06241370440316
O	2.8043598919619814	24.897360292974447	17.454934814212866
O	3.426570962059132	23.835870607620905	17.91282914896812
O	4.318172756000082	24.13438235542087	18.82839945445884
O	2.9930895862991873	25.853074923017097	20.57023027000693
O	3.0947857799360756	27.254493495354453	20.54499090905371
O	2.312431902603272	29.28934242086113	19.35209189351976
O	3.2650289052728674	24.84428508706511	19.79105505906267
O	1.2181179142246306	28.924667429111622	18.364390028049364
O	2.8651669857623645	28.294230394782286	19.981485011204178
O	2.076063559580672	28.699171693536602	17.42476415215687
O	1.578289494923836	29.249026025786225	16.163376522830234
O	4.545434143455175	23.550971469286473	20.158664953520287
O	3.4935802372116305	25.06338014831821	21.66425938352107
O	1.0520728497963958	28.137609043216834	15.503130259592641
O	0.6249049325155029	30.249935088138912	18.203868340249485
O	0.4820257944060087	27.342321104887194	16.522336024063005
O	0.27500383457524347	29.777081501712047	16.649748646279313
O	-0.8394437104577426	27.90646251469591	16.641914196762915
O	1.5745527306875982	27.120556609162833	15.770512201236272
O	-1.874208461608947	28.331148488572932	17.41612128480041
O	-2.4122146587315436	28.812002805653638	18.60298160269921
