35

O	12.62489964447657	3.521474619264171	37.76350210394485
O	13.258022341981919	2.4292195689528207	37.28436364299574
O	13.09875699039204	4.859821768156838	37.81144114708056
O	11.377336431961645	3.5573643542628264	38.44023089005692
O	14.003128993107747	1.2068780710594607	37.60932187839668
O	12.826367276848435	5.674458366782899	38.93854563933427
O	11.440268187042438	3.9988549315721857	39.73011593345708
O	14.791020677244697	0.3413823839623942	36.78907220274676
O	13.276994808780943	0.794493258732806	38.529208792914304
O	11.971811701407438	5.234720330443447	39.94404404664895
O	13.84477157089797	0.3323028150278209	35.84887940738898
O	15.799369407603912	-0.39651606474343426	37.3944048256287
O	13.644648670629422	1.83276177196029	35.341442452948144
O	16.53051248495017	0.7681874776769022	38.069541889789235
O	15.039498442284533	2.38404640531282	35.431610158245284
O	15.80653683224103	1.9762524257481031	38.294388417049255
O	16.21130248340565	2.7714435376101854	35.90542247766684
O	15.470690139624176	1.7825423906735494	34.40896138644562
O	15.51677897536283	3.0590325077309273	39.08267617728224
O	17.506782086617413	2.036071738919322	35.76329449059799
O	16.76737557922353	1.2217688879655417	34.14480051534143
O	14.552011504277734	3.1692344496541422	40.3123190027188
O	17.44160973287358	0.7436226859767674	35.195193758408514
O	14.574246530077556	3.861420458729631	41.54869962310077
O	17.897764197783914	-0.5466238762745137	35.53470967686384
O	13.570730908108732	3.4760179554386035	42.58114610020723
O	18.24166750368644	-1.7502886674682925	35.09349484104883
O	18.08519047694932	-2.6781818468828336	36.15713742952225
O	17.064484103171022	-2.1742458744364983	34.19125082456901
O	19.445773999265008	-2.3942720800095723	34.391005342508585
O	17.941951537679497	-3.8988503045886542	35.81537461362692
O	19.37463299158927	-2.8660254173016053	36.82044069235494
O	15.87668552997996	-1.2115041064256875	34.287997584443445
O	11.909681072114928	5.671569161323448	41.205209752676936
O	14.192157136367404	5.109467851919275	37.026189143945814
