101

O	2.8725552063499995	-2.34637736975	0.28649098155833314
O	3.6165199063499998	-1.4055660397499998	-0.2589140624416669
O	2.7977950163500003	-0.21269884074999978	-0.3730802273416669
O	1.58189362635	-0.0444838637499998	0.34793931255833305
O	1.8434457663500001	-0.5449806997499997	1.5057623465583332
O	2.70258392635	-1.59991850975	1.4894997165583332
O	0.34588655635	0.43730864155000015	0.638618456558333
O	0.48812276634999985	1.10841030525	1.778523166558333
O	1.5255462263500001	0.4833929227500002	2.372315426558333
O	2.06027229635	0.12903185525000016	3.624813546558333
O	-0.7814702146500001	1.5661094302500003	2.293383066558333
O	-0.39841744765000003	0.9340348022500002	-0.4570620667416669
O	0.35883888635000005	0.3178011462500002	-1.6335272134416667
O	2.1833644463499997	-3.48328651975	0.6832618265583332
O	1.94843520635	-4.58044632975	0.47376346355833315
O	0.9358951763499999	-3.0400573597499996	1.236598046558333
O	0.16528336634999996	-2.77005387975	2.264479936558333
O	-0.8743101899500001	-1.7781476797499998	2.404245076558333
O	1.09968619635	-2.66735975975	3.493870686558333
O	1.62225965635	-0.06768772574999982	-1.9599330834416668
O	1.7634464663499998	-1.4529171297499999	-2.270040043441667
O	0.7060086263499998	-2.04449081975	-1.7150171134416667
O	0.19690408635	-1.7113908497499997	-2.939246673441667
O	-0.27837925365000005	-0.3917934207499998	-2.679758873441667
O	-0.3962943956500001	-1.97060998975	-0.742669910441667
O	-1.54801136165	-1.1065135897499998	-0.8027118424416668
O	-2.7403859936500004	-1.3701037797499998	-1.296762599441667
O	-2.76740742365	-2.7485654097499994	-1.259565258441667
O	-1.56100739065	-2.7174635797499995	-0.4147160776416669
O	-0.4557066906500001	-3.42214210975	-1.1904597484416668
O	-1.96134988365	-1.24475567975	1.9186433665583331
O	-3.1737081836499996	-0.9707179397499999	2.582392096558333
O	-3.2218945136499997	-0.9321725197499997	3.9438699965583326
O	-2.10517376365	-1.4109961297499998	4.502910836558334
O	-0.92966983425	-1.3461109897499999	3.6397705865583325
O	-4.42202627365	-1.36974193975	4.634457196558333
O	-4.39853882365	-2.4082151197499995	5.550012476558333
O	-5.24136707365	-0.4917915597499998	4.879556856558334
O	0.5420635063499999	-4.19419506975	-1.961788273441667
O	0.70217022635	-5.13562978975	-2.739740083441667
O	1.92765706635	-3.98744796975	-2.3252320634416668
O	10.887233616349999	4.83189114025	9.358060586558333
O	-11.395950783650001	2.1764877802500004	7.569464086558334
O	-8.80814709365	2.2260431402500003	11.961661536558333
O	-8.852800903650001	-1.5389791997499997	11.334642336558332
O	-10.878727783650001	-3.66976659975	-1.7721018234416668
O	-9.60079663365	-7.24238208975	-1.058130803441667
O	-8.91167957365	-6.60260235975	2.635965476558333
O	-6.921887573649999	-3.62736777975	1.679773236558333
O	-4.98085509365	-5.76110185975	-0.8415055714416668
O	-4.22220442365	-8.53029978975	1.5360217465583332
O	-3.09921781365	-6.2125197097500005	4.0871620265583335
O	-0.7150824426500001	-4.79545628975	1.9705698265583333
O	1.12005433635	-7.959305759749999	1.2888422365583332
O	2.19973647635	-8.350600879749999	4.823810556558334
O	4.04820382635	-4.96847286975	4.913759266558333
O	5.53501103635	-5.82045434975	1.406507496558333
O	7.1183114963500005	-8.89684192975	2.684666086558333
O	8.36822693635	-6.95095576975	5.7677272665583335
O	9.88092941635	-4.29098632975	3.4533810865583328
O	11.38436621635	-7.0110182097500005	1.208344296558333
O	13.207293316349999	-8.23631009975	4.377785986558333
O	14.419789016349998	-4.68092062975	5.194251706558333
O	9.746807316349999	-3.4896284697499995	-5.7837904034416665
O	9.669789016349998	-0.36314567674999987	-2.241143233441667
O	8.112438246349999	2.3201091402500005	-4.580546223441667
O	7.01495048635	4.67877975025	-0.4140254709416669
O	7.13135394635	8.07782934025	-2.069337513441667
O	8.783200306349999	9.19991411025	1.2358324065583333
O	5.44011491635	8.26847121025	2.944295346558333
O	3.24567074635	9.990840900250001	0.31096512955833305
O	-0.06689513565000005	7.68570610025	2.062280846558333
O	1.13182372635	6.83651020025	5.532977196558333
O	0.44256181635	3.30290454025	6.773900556558333
O	1.3661411963499999	1.2671518022500003	10.094070136558333
O	4.7182982763500005	2.9358095102500004	10.823229036558333
O	3.0484317463500004	6.28830313025	10.152286436558333
O	0.017852853349999975	5.77046315025	12.408817036558332
O	-2.56535652365	5.75133298025	9.623483936558333
O	-4.97092116365	6.37351188025	3.638587026558333
O	-10.274804633650001	6.52954370025	-0.8595168344416668
O	-7.906985243649999	4.32647012025	-2.808010563441667
O	-9.17000856365	5.79636758025	-6.115317813441667
O	-12.730977783650001	4.93685288025	-4.912615593441666
O	-12.05158008365	1.1721520472500002	-4.809374953441667
O	-8.31817202365	-2.4376944297499996	-7.291064833441666
O	-8.80717523365	1.3366179112500003	-7.556660023441666
O	-3.2404747036500003	0.1456957622500002	-8.158460743441667
O	-2.04189642365	3.3514026702500006	-6.378477403441667
O	-2.68399568365	6.19850942025	-8.478188233441667
O	2.66855812635	5.62487480025	-7.559760963441667
O	1.11454852635	8.857183510250001	-6.220757763441666
O	1.78875323635	10.342560710250002	-9.672977333441667
O	5.4409901863500005	9.139234820250001	-9.417974433441668
O	5.79061356635	10.21693382025	-5.770119243441667
O	6.5595087563500005	-2.1095653697499994	-11.522316563441667
O	1.60835256635	-3.1917993097499995	-11.121844963441667
O	-1.6527811736500002	-8.614468349749998	-10.633247563441667
O	-10.08625347365	-12.342751149749999	-9.096260663441667
O	-7.51557585365	-14.523812449749999	-2.603549663441667
O	-0.53871143065	-13.737251849749999	-3.106044743441667
