42

O	0.8744320714682683	26.412013674441074	18.490217242546244
O	-0.18021405266607715	25.916408184106853	18.956001289894573
O	1.9560350622487306	25.438323448925452	18.26500790157101
O	0.5982588312503498	27.307763199026375	17.48428307870647
O	2.898540352267132	25.950325127773375	17.26736696827002
O	7.738764305697758	23.643095510474062	17.852689582310248
O	3.523020693860713	27.20396406749876	17.805065909563197
O	2.8621843732754533	25.483767276963132	19.434579259504204
O	4.102984107725719	24.795872889337815	18.933935413274227
O	4.222941088146133	23.513559248317982	18.542779197907766
O	5.523620435055525	22.991215376264194	18.567620646110154
O	6.412527961492623	23.918755433934198	18.077925902005443
O	6.347970707398644	25.120528143977722	18.787554574355493
O	5.1909974764257445	25.485792420623735	19.355779189254
O	8.450810043202738	24.709774153785006	17.190476015467414
O	7.722382826802861	26.00782801370668	17.11861224343096
O	6.619863198166989	26.084805168069916	16.11918637840648
O	5.750225074616058	21.48083460667584	18.532592882527545
O	4.901112463156702	22.668896205464975	15.388295951894609
O	5.663877688903614	23.42672264249724	14.47991080561975
O	6.71921189531021	21.379370495080078	15.902834328527554
O	7.285897695078076	22.092453290986633	13.029676863280649
O	7.797166678420282	23.43905992719573	12.839930898056906
O	7.894895269160104	21.513568460077835	11.947392695843426
O	6.109117730135846	21.283749272838275	12.586457640203978
O	7.31943638078099	23.87215576654087	11.540278315308415
O	7.630994475646775	21.90803377185129	10.492970523681503
O	5.583819649513958	21.992317500710115	11.424564432575568
O	7.900109543490368	23.339736643322052	10.29390498271135
O	5.97192230074473	23.414157673900785	11.62912232569531
O	6.258623275706098	21.59203790925399	10.181110175456926
O	4.125695294843804	28.099050427734493	16.97081132616544
O	3.4122455932604083	29.282525639497187	16.75683406517959
O	2.625340724679729	29.80596578738267	17.777833507973583
O	2.811864053292809	29.154379438979802	18.997226344361763
O	2.9060297888467166	27.795336915065725	18.917481143345253
O	5.349341310497296	21.279287510962405	15.376364361509557
O	4.653658995020357	20.51435620594312	16.424425149934205
O	6.824114999453928	22.85690531529798	14.162224797233923
O	7.4454832347201005	22.386913177041727	15.247027597926545
O	4.60441168401114	21.197604089594655	17.643034175926374
O	5.017704844057153	19.346781803808923	16.54739782943863
