27

O	-0.8861459692618707	29.017913872088606	20.623540252911543
O	4.066770969567424	26.64052888589671	18.63676322152627
O	7.731682857409632	25.520597098580605	18.771963549303415
O	4.44351277334369	25.487655158740004	19.315928072626
O	0.005049521164167459	26.928276065039654	21.545384305174533
O	4.775364756458712	26.858905234140334	17.495099364144277
O	-1.3529234701001212	29.95123947206666	18.563080420733748
O	2.859469428619132	27.1330579200174	19.033127476736222
O	2.5569669242317294	26.96006131222152	20.36414263733225
O	5.717770802699774	25.04591350804449	19.244707684404247
O	6.483727994330464	25.79244228272253	18.439039859059957
O	3.7972006128589446	25.032499656653325	20.42070045165037
O	6.1053843304941156	26.60656497788776	17.411417882664985
O	7.941969952584228	25.267714791713612	14.769339775676926
O	2.8642167508287177	25.821917684393956	21.019220855893966
O	2.3788818088399624	28.125597738345213	21.295597846463686
O	1.3008184921711834	28.660097204288377	20.535462858702857
O	0.06001359993773647	28.092655140823858	21.08014654145805
O	7.923710490622636	23.923875449491184	14.385558274999521
O	-0.6687323289351044	29.131414565655092	19.234039513825753
O	7.259868523528036	23.095704036047444	15.289713384556277
O	8.20731593220614	24.305134153731252	18.360733628858384
O	7.97749464915949	24.45392458212609	16.93260407293593
O	7.014921863554544	23.580116450606972	16.54608337406729
O	8.33107421738097	25.44676352188947	16.094479802752975
O	5.843174399870324	23.47162591989223	17.25252034771841
O	1.0011248235085217	28.58148050302197	18.815809761929202
