28

O	2.338932730813047	28.07931301084958	20.019023907769764
O	8.292373861188933	21.27024352607938	13.251945423605063
O	0.8419945411114069	26.73790607097306	17.618957857932802
O	1.360123996329449	26.340756256168095	19.827831759713735
O	1.8171072944357274	25.69015822813922	17.563572942264653
O	6.859700601364467	24.625670593056665	17.879888226225162
O	1.718799393917383	27.77143723136008	17.382507631880056
O	0.2740882113057399	26.84339241062935	19.042802115966587
O	2.6892812095368503	27.830104221774846	16.455864569828268
O	3.149544917573813	26.695824332369448	15.94697610700782
O	2.7624059951724087	25.571280706080227	16.550156606641725
O	7.199635532900213	23.34239159550265	14.601632395466545
O	2.5111651220167843	27.02690945776306	19.473177139620677
O	3.8809161146778006	26.608531894104882	19.238773891526666
O	4.127900494178309	25.48608530496154	19.852223585809664
O	4.767462501858358	27.031216372302264	18.369054201674427
O	5.657359923599834	26.285925217071068	17.756393821355513
O	5.6005609190495855	24.96555271837684	18.105597050344297
O	7.205415928320814	22.022514194983344	14.352039536812814
O	4.683171761928147	24.55608821475682	19.008899835864707
O	6.215870220768657	26.1869594806854	16.476214460040666
O	7.34102565370125	25.39647798403065	16.866564416666847
O	6.984012037647853	23.186303853429195	18.097094119306252
O	6.4312116839773275	22.851779078361776	16.72405770892385
O	5.798410962206594	21.79345556153707	16.234037022511565
O	6.272686573195538	23.757025763057804	15.621306654771177
O	6.663192611328796	21.181578600505084	15.275258090604112
O	6.197264336859454	20.037877095437008	14.760171434364636
