92

O	1.312833283869565	4.395918169753623	-3.170180753124102
O	1.6265167238695653	2.986809219753623	-3.573665003124102
O	0.41758042386956506	2.153266919753623	-3.883738813124102
O	-0.45073708913043486	1.8663704137536228	-2.628047593124102
O	0.4107412638695651	2.296433779753623	-1.550388739124102
O	1.1650772838695653	1.5952072357536229	-0.583841982924102
O	1.369470793869565	2.208741779753623	0.562948916875898
O	0.5907635038695651	3.368144599753623	1.0260004568758978
O	-0.1677232061304348	3.773951119753623	-0.21443619712410206
O	-1.4523982473304349	3.710404779753623	-0.07419078012410207
O	-2.051400176130435	2.432990589753623	0.2473277888758979
O	-1.4489633947304348	1.964767124753623	1.530527336875898
O	-2.100416452130435	0.6555374767536228	1.6826123668758979
O	-3.251757436130435	0.5497015667536229	1.513254726875898
O	-1.4518647973304348	-0.4099361302463772	2.428526936875898
O	-0.11098028613043476	-0.3254098402463771	1.8593836168758981
O	0.28708829386956514	-1.3374171702463769	1.1316657068758977
O	-0.7394272521304348	-1.8121958802463771	0.1950040548758979
O	-1.1054880511304348	-0.5707922602463772	-0.6385189392241021
O	-2.0170683571304346	-0.8442165502463771	-1.564683223124102
O	-2.7569681761304348	-2.055863440246377	-1.0317962621241021
O	-3.078874376130435	-2.004871340246377	0.13283742987589797
O	-2.0867892841304347	-3.2070798302463768	-1.126666688124102
O	-0.15445977613043493	-13.245418790246378	-5.859051823124102
O	-1.546895848130435	-13.894396890246377	-0.552177025561102
O	2.133079083869565	-14.850435390246377	-0.08548042312410209
O	4.611785763869564	-13.918552590246376	2.665496786875898
O	-9.184310516130434	4.6503157897536225	4.571218876875898
O	-7.4194721561304355	6.516738219753623	1.7071242468758983
O	-10.190709296130436	5.631462809753623	-0.8040501601241021
O	-10.152525786130436	2.013910339753623	0.43968486187589795
O	-6.609898286130434	1.909564365753623	-0.19718076312410204
O	-6.941372106130435	2.718281209753623	-3.880477833124102
O	-9.187630936130434	-0.20254317024637702	-4.770112253124102
O	-6.705683916130434	-2.687887930246377	-3.4379521131241018
O	-3.803954126130435	-0.614022190246377	-5.236174353124102
O	-5.296085836130435	-1.0851715402463769	-8.573963203124102
O	-5.925337426130435	-4.818595710246377	-7.870718833124102
O	-2.191477938130435	-5.197862690246377	-6.933148003124102
O	-1.1280323931304348	-3.2732337202463766	-10.059693453124101
O	-3.0572283861304346	-5.971535400246377	-12.002782923124101
O	-1.2923838481304348	-8.754543800246378	-10.032516013124102
O	2.171919413869565	-7.230473690246377	-10.614875623124101
O	8.025615163869565	3.368585059753623	-12.427447623124102
O	4.818676063869566	-0.981907640246377	-9.799782973124103
O	4.683330703869565	0.9276836587536229	-6.506689003124102
O	8.224585543869564	-0.10702181024637702	-5.578398593124102
O	6.910520503869565	-3.6948775602463773	-5.871924733124102
O	3.7723053638695654	-2.953756890246377	-4.028755763124102
O	5.877545813869565	-1.637570920246377	-1.0081166371241022
O	8.137159973869565	-4.528585630246377	-1.143986897124102
O	5.337047383869566	-7.053493280246377	-0.876881853124102
O	3.573470573869565	-5.088519960246377	1.726260886875898
O	6.372906163869565	-5.453211100246377	4.086720256875898
O	5.415344383869565	-9.204262590246376	3.932909696875898
O	2.042061283869565	-8.248747850246376	5.577191956875898
O	-0.49892440713043484	-4.406123200246377	8.812984596875898
O	-2.775694376130435	-7.123677670246376	7.390175386875898
O	-5.744805676130435	-5.911309080246377	5.305618106875898
O	-8.519650736130435	-7.493834560246377	3.112845786875898
O	-6.728288086130435	-10.690568390246376	2.139460496875898
O	-5.356926086130435	-11.005588590246377	5.6326871968758985
O	-8.747180356130436	-10.907426490246378	7.388344006875898
O	-8.097983876130435	-7.564091040246376	9.101994776875898
O	-4.7806071761304345	-2.269540780246377	11.205939176875898
O	-2.7861329761304345	5.015580729753623	11.038988476875899
O	-0.36916665613043476	7.434038389753623	12.727486276875897
O	-3.418423626130435	9.000185949753623	14.478631876875898
O	-3.122338406130435	11.199748609753623	5.821838526875898
O	-1.360205121130435	10.106829729753622	8.998504106875899
O	1.2611598838695652	7.954795849753623	4.483600686875898
O	1.9955418838695653	4.564603659753622	6.047161026875898
O	4.700781463869566	5.323246849753623	8.605706776875898
O	7.679242243869565	5.380947179753623	6.125425276875898
O	6.520802663869565	1.9755183407536228	4.861509916875898
O	6.474468163869565	0.5151917967536228	8.379838876875898
O	9.956954953869564	1.9811656537536229	8.925989766875897
O	11.157631653869565	0.29404456775362287	5.701034016875898
O	9.308003953869564	-2.975083580246377	6.424955916875898
O	12.267257753869565	1.8640281817536228	-2.267293323124102
O	12.455560953869565	4.824823709753622	-4.672010923124102
O	9.461988653869565	5.609386299753623	-0.24476514712410208
O	7.626514403869564	6.119690979753623	-3.562454223124102
O	4.195670723869565	8.903804639753622	-1.1749408991241022
O	3.9749822538695647	10.871814249753623	-4.442561193124102
O	-0.40632748413043485	12.744522309753624	-3.075960343124102
O	-3.683781536130435	16.098282509753624	-1.407711715124102
O	-4.240115506130435	17.009596309753622	-5.067671893124102
O	-10.139201216130436	11.856058009753623	-6.463430173124102
O	-7.586026606130435	9.219818469753623	-7.318611753124102
O	-8.576631666130435	6.051391539753623	-9.209050333124102
O	-3.418044636130435	5.388216149753623	-10.358527833124102
