37

O	9.069746593645327	26.069361716346812	16.045671849968777
O	8.640608841085495	24.73553108365162	15.78298236146462
O	7.883132284438339	23.90979265368707	16.530347827918778
O	7.216260022565102	23.194288870425698	15.654751218196305
O	7.9968463378654455	23.08448348349616	14.588739895477582
O	8.990312017265182	23.920362095415303	14.832784334065835
O	7.665563065251927	22.803273475554924	13.162531061113501
O	6.3312592636704474	23.11413014996044	12.848934423831688
O	6.18907230533095	24.036814248172476	11.83732427573778
O	7.180108108659464	25.05522856390873	11.89335144133053
O	8.274320215291512	24.36021419730662	11.360758013543625
O	8.489878103515835	23.185229449702046	12.127079497863033
O	8.347716617690894	23.56708700077716	17.925528999684015
O	7.430855097922254	24.347991373540133	18.744496051471618
O	7.5969163574295955	25.597933056109138	18.15808564162494
O	6.457217107402252	26.153128600922354	18.00491475228216
O	6.209381202354297	27.46137003598541	17.82590062423022
O	5.615415761051443	27.870488359200042	19.083877166853313
O	4.559432960937376	27.022610644178116	19.45457639427983
O	4.403587791344655	25.866800522930507	18.647674600731623
O	5.331183784081455	25.295589042408345	18.000195415451923
O	2.873665368874962	25.73975104388711	18.65398701476829
O	2.667347795080591	26.434682134870062	17.282413134863223
O	2.676995007260265	27.774713108333565	16.916705676993537
O	3.3880649563107466	27.57293374148854	15.751383157167098
O	4.193757412211989	26.39768680644256	15.780030896911958
O	3.0038717810173936	25.98780140847233	16.039020463484018
O	5.543375096720709	25.741907060732522	15.040647510806158
O	6.107315967615199	26.979269841922402	14.899726504191914
O	6.41976756565591	27.76641270617139	13.841365041595903
O	4.997673239960255	28.148811255544924	13.592628078740194
O	4.905675759864796	26.91924630852748	12.829278109836805
O	4.763336370808598	25.945744936340947	13.873582073741861
O	2.8140096069362315	28.506457569481146	18.26124000848293
O	1.417676145691904	29.008609859756906	18.544263075579632
O	0.7103301368875288	28.689944860678523	19.54037388132747
O	0.5601434814550661	29.94757839735928	17.952324940429182
