97

O	0.14056674499999977	3.614084338227273	2.5498816048181823
O	0.29287375999999976	2.958739608227273	3.696312454818182
O	-0.08527680300000023	1.7093323700272731	3.437552934818182
O	-0.22125160900000024	2.666145628227273	1.644672344818182
O	0.8650124129999999	0.733695866227273	-1.0645912631818177
O	1.7076174329999996	-0.20488230177272704	-1.472978439181818
O	-0.6232327010000003	1.5342995042272731	2.286123054818182
O	2.8651302229999995	-0.05242306177272704	-2.2513605851818177
O	0.7062591529999998	-1.619340501772727	-1.5209894891818179
O	6.482785152999999	-1.195015851772727	-2.899787655181818
O	3.969246342999999	-1.001385161772727	-2.223252775181818
O	-0.18617165900000024	-0.9131281017727269	-0.08458278718181778
O	0.9021247729999997	1.7703173612272731	-2.0111458051818176
O	5.158913983	-0.6002383517727268	-2.895161865181818
O	-0.3631143172300002	0.28271518822727315	-0.6819794437818177
O	-0.05872793700000023	3.486071508227273	5.063351144818182
O	3.169388543	1.260483396227273	-2.607791065181818
O	7.347831413	-0.43037655177272716	-3.460394695181818
O	2.1174904229999996	2.118402771227273	-2.4530628851818177
O	-0.8351292040000002	2.934508338227273	0.34651673481818224
O	6.667738083	-2.413112951772727	-3.5167666651818177
O	0.007782551999999776	2.755031478227273	-1.6686705421818178
O	0.3509050399999998	3.312609998227273	-0.44372816418181776
O	4.9176891629999995	-0.6858091617727269	-4.313665175181818
O	-1.8544296370000002	0.6973231932272731	2.1002469348181823
O	-1.4189138270000001	3.6797013282272735	5.377557354818182
O	0.5493369049999998	3.135923618227273	6.234356984818182
O	3.8987309029999997	-1.623176881772727	-4.548502135181818
O	-2.0686748670000004	2.996975568227273	6.443702604818182
O	-0.13581079200000024	2.610742794227273	7.361342474818183
O	-1.264391787	1.891117566227273	6.862156194818182
O	-2.477709807	5.222042188227273	12.487565804818184
O	-3.409044327	7.426907128227273	15.457770904818183
O	-2.4290617570000004	9.691592998227273	9.906098504818184
O	0.8534114429999997	8.303677848227274	11.251148004818184
O	3.093768453	4.209024688227273	14.963607404818182
O	0.6816236629999999	4.230528928227273	17.915838204818183
O	1.7094920529999997	-6.634820461772727	9.401806004818184
O	3.596184223	-1.647045341772727	10.684546604818182
O	1.6698277629999996	-1.9217281217727271	7.382120374818181
O	4.718929803	-2.998380291772727	5.483214984818182
O	6.666547463	-0.06920465177272694	6.964136164818182
O	4.136979553	2.302077147227273	5.6101613748181824
O	4.2341319429999995	0.591944278227273	2.357534644818182
O	7.895618112999999	1.270969587227273	2.183679874818182
O	7.463366153	4.9630166182272735	3.0523449048181823
O	5.049766633	5.248910288227273	0.25083748081818225
O	7.214646393	3.5285917782272733	-2.289433285181818
O	10.170036663	5.724336428227272	-1.3041586891818178
O	8.144315492999999	8.837412678227274	-2.039675155181818
O	6.853647893	7.430478768227273	-5.375805695181818
O	8.550566753	11.491005388227274	-7.680491735181818
O	8.163606683	-0.5513313617727269	-10.160362035181818
O	6.471339583	-1.239694171772727	-13.406631995181817
O	5.403864593	2.445140066227273	-13.260208395181817
O	4.408778992999999	2.172958554227273	-9.604945385181818
O	2.1119426629999998	-0.8139936417727272	-10.185293265181818
O	0.6161342749999997	0.8346991602272731	-13.312987495181817
O	-0.04265724500000023	4.010203878227273	-11.316025195181817
O	-1.5182153670000003	2.030011069227273	-8.427089875181817
O	-4.469844287000001	1.3122971422272731	-10.614656035181817
O	-5.971135417	4.881518118227273	-6.718030045181818
O	-7.584159577	1.432956731227273	-6.638083805181818
O	-11.071935837	0.049927218227272974	-7.172009055181818
O	-12.230606637000001	-3.5578305017727274	-6.740035415181818
O	-12.574146537	-3.1088304917727267	-2.978993345181818
O	-9.335456477000001	-1.4221440317727267	-1.9293034351818177
O	-6.990182387000001	1.499027934227273	-2.4712974951818176
O	-6.392686837	5.068355178227273	-1.3490367641818177
O	-3.4346112570000003	5.675145678227273	0.8611862648181822
O	-1.6840035470000003	8.233064478227273	3.0192587748181823
O	-1.9690642070000002	10.941289588227274	0.34326947481818226
O	-5.663601477	10.307318678227274	-0.25223831918181777
O	-6.565963147000001	10.384322958227274	3.422621124818182
O	-7.078139157000001	6.694898768227273	3.966683564818182
O	-8.699591737	3.812078578227273	2.065287074818182
O	-7.544211027	0.3116514282272731	3.033163544818182
O	-9.678681617	-2.5937820817727273	1.9668948748181823
O	-8.651711157000001	-5.460518061772727	-0.2400370411818178
O	-8.377259387	-6.592073551772727	5.176470594818182
O	-5.052819337000001	-6.957771861772728	3.323365304818182
O	-6.019862047	-10.528425591772725	2.4237538148181823
O	-6.709083807000001	-11.273393191772726	6.115935164818182
O	-3.134448237	-10.494717791772727	7.144527444818182
O	3.6523006129999995	-13.460645991772726	3.4416346348181825
O	2.209534393	-10.035981891772726	3.9565201548181825
O	-1.2385222480000002	-10.994321691772726	2.642713724818182
O	1.7163829329999996	-8.667971691772726	-1.5499529571818178
O	-1.3074587880000004	-6.864768821772727	-2.861086495181818
O	-1.6547677070000002	-5.812099401772727	-7.995264585181818
O	-5.331374777000001	-5.433317991772727	-7.391399265181818
O	-5.273417437000001	-2.858298021772727	-11.662696695181817
O	10.976689763	-9.002543791772727	-6.239065465181818
O	10.486333363	-9.188505091772726	-1.2888180541818177
O	13.632407663	-11.332945091772727	-1.0814411151818177
O	14.273499563	-2.418356741772727	3.728567024818182
O	14.739759063	1.3660594772272732	3.552289784818182
