30

O	6.498649992344719	20.992062921270573	11.963155318955602
O	7.823640586531084	24.90513618778109	12.86145071809331
O	5.988743726510918	20.129090717804	12.912635554090471
O	7.413993885080943	21.838931376211526	12.451029170552639
O	6.498007497510165	24.832724116401415	12.94533966890397
O	8.36869055665328	24.82591032567204	14.086461676875734
O	5.001958391394167	23.090592591695813	18.057804426172215
O	3.642163185205053	23.39251452811931	16.4241425338661
O	5.786032052636279	20.751585944756524	14.143312424848753
O	7.400901207984454	21.993616674379297	13.846679056727918
O	5.939370293524804	25.47221580500928	13.983860383003542
O	7.673686459719313	24.895350411851126	15.236616087539872
O	5.102930455954187	26.351194502524077	18.601469897316118
O	3.5803080715006876	26.69870101316614	16.907090522028163
O	6.011449009967471	22.822303193998085	17.09091976765473
O	4.57193328723366	22.992313225438547	15.472937750231033
O	6.089542868697211	26.108206733050675	17.617414176798732
O	4.585433050579727	26.534525161731537	16.02430220353912
O	3.053300469493657	24.365465536632595	18.73954492433456
O	0.5696815945906897	25.33397246939728	19.008730629191255
O	3.798027570008994	23.70214280775013	17.705405658816716
O	3.830255054941236	26.747023653189203	18.25110914449774
O	6.372872712263861	21.906147965103354	14.652299799399223
O	0.17252308924897886	25.791463531764986	20.14259965719656
O	-0.5632616084967745	25.771943880972685	18.28904824095875
O	2.6324086941069664	26.52273390959559	18.974286435078852
O	6.458838857848312	25.45572549256403	15.19006136060882
O	5.785479093235097	22.50505549506294	15.80434147578966
O	5.733904842080582	25.8917469428508	16.322213311091854
O	1.9411574480859182	25.291493722582864	18.5600706413723
