81

O	-2.9482730808235296	-0.15905267303676468	3.689608780470589
O	-2.3900940608235297	1.1577376249632352	3.2278980704705886
O	-1.7338363648235293	0.9393482879632353	1.9218969004705888
O	-2.453174050823529	0.7154289869632353	0.8484077714705888
O	-0.3558292018235294	0.9890661699632353	1.446485150470589
O	-0.3872360828235294	0.4398084760032353	0.02359446757058873
O	0.2220878691764705	2.3288242329632354	1.1394069104705888
O	-1.5686389998235295	0.9244847509632352	-0.27638256752941126
O	0.9567515891764704	0.3199541829632353	-0.5583336175294112
O	1.1264648091764706	2.523848652963235	0.16959383447058873
O	-1.9030180178235294	-1.1406163370367646	3.897679370470589
O	1.8469073991764704	1.2933128969632353	-0.23743768652941127
O	1.2304795491764704	3.7435474629632353	-0.4607966945294113
O	-11.279630150823529	-4.710844857036764	-8.626072769529411
O	-6.215323700823529	-4.151190437036765	-12.574154639529413
O	-2.4725361908235293	-4.7937615170367645	-12.900429639529412
O	-1.7243461748235296	-0.0542099090367647	-13.730327039529412
O	3.9600533391764707	13.619686882963235	-5.386296989529411
O	-0.7661343008235295	10.480876282963235	4.395013050470589
O	-1.3976472138235294	7.702101152963236	7.008593760470589
O	-5.03579242082353	8.854742512963236	7.391558140470589
O	-5.346058430823529	8.867994402963236	3.581750380470589
O	-4.02109440082353	5.3075896729632355	3.3104570304705887
O	-6.839511400823529	4.1721765529632355	5.638262680470588
O	-9.693470760823528	5.329545292963235	3.449694950470589
O	-8.176761130823529	3.4080428429632352	0.4858292984705887
O	-7.451991360823529	0.45820914476323527	2.7779566204705888
O	-11.09879368082353	0.15369550196323528	3.8986769204705887
O	-12.293768350823528	0.5447325579632353	0.29205653147058874
O	-9.904701140823528	-2.2835718970367647	-0.6891894495294113
O	-11.193458050823528	-4.432071397036764	2.225924870470589
O	-14.705855350823528	-4.040214977036764	0.7131472814705887
O	-13.40678595082353	-5.066830947036764	-2.743056029529411
O	-11.553526550823529	-8.121398417036765	-1.3777973495294111
O	-7.23596298082353	-9.183240177036765	3.8303415804705887
O	-3.9943588808235293	-7.193382677036764	4.294050490470589
O	-1.9408967648235294	-9.980826917036765	2.6917405104705887
O	-4.173195750823529	-9.421761127036765	-0.36826534552941126
O	-3.9815715208235294	-5.615881577036764	-0.13611679352941128
O	-0.15308282382352945	-5.824006597036765	-0.25716184252941127
O	-0.20439009882352943	-8.349962827036764	-3.081536629529411
O	-2.3482276908235296	-6.055275637036765	-5.227743329529411
O	-0.5401753658235294	-2.906992907036765	-4.1830060495294115
O	2.5985985691764704	-4.396359247036765	-5.792862329529411
O	0.6083010291764706	-4.183256767036765	-9.088874309529412
O	0.5826056591764706	-0.36742965603676475	-8.612084749529412
O	4.291604079176471	-0.13176440503676473	-7.6147519695294115
O	3.1879178291764707	3.8392172729632352	-6.031444719529411
O	0.056928769176470606	4.789359912963236	-7.950700769529411
O	-2.6023474808235294	6.4139474029632355	-5.758957089529411
O	-6.216985150823529	7.609047752963235	-6.216567819529411
O	-3.997887730823529	5.680744262963236	-10.719497539529412
O	-1.3405562578235295	10.170501762963235	-8.732902519529413
O	2.1292506391764707	8.677096842963236	-8.250422909529412
O	3.8182255191764702	8.955791462963235	-4.844507599529411
O	9.18390564917647	5.833847172963235	-2.728119219529411
O	9.001237149176472	10.882075282963235	-0.46798216052941133
O	7.504665119176471	8.133434702963235	1.6715489404705888
O	10.942808749176471	7.209641612963235	2.984207350470589
O	11.403217449176472	10.912271282963236	3.931776920470589
O	5.70383791917647	6.747726832963235	9.441530860470587
O	8.612237119176472	6.610331662963236	7.011097200470589
O	9.05755604917647	2.879976742963235	7.730675090470589
O	5.53015283917647	1.8711389829632354	6.646541100470589
O	5.895740029176471	1.5355580229632353	2.8948047804705888
O	9.496436649176472	0.5339175236632353	2.3336780304705886
O	9.04372774917647	-3.237120097036765	3.124627200470589
O	6.146704079176471	-3.254146807036765	0.6172774524705887
O	8.324020919176471	-1.7229493170367645	-2.112069219529411
O	11.05715474917647	-4.296944297036765	-1.2957028695294113
O	8.474618549176471	-7.104540727036764	-1.6620223195294113
O	6.83134738917647	-5.545639917036764	-4.756436659529411
O	10.82560974917647	-8.962639767036764	-6.289598579529411
O	3.37519928917647	-11.679615917036765	2.839559120470589
O	2.7221747891764707	-12.647262817036765	6.478316750470589
O	5.03883816917647	-7.825940307036765	5.720910840470589
O	1.7299240691764703	-7.761096277036765	7.655268490470589
O	2.95209844917647	-3.267733507036765	9.536896840470588
O	1.0372061791764704	-4.388734737036764	12.659115960470588
O	0.6267398591764706	0.3255526539632353	14.164142560470587
O	1.5561810691764704	4.448027412963236	16.779629660470587
