96

O	5.8629583720046154	-2.039936016892307	1.2452379026984612
O	5.292848682004616	-1.0833034268923072	1.9617274626984613
O	5.881000992004616	-1.886436076892307	3.0648337926984612
O	3.8246174720046158	-1.0238106568923069	2.0814378026984612
O	3.5408357520046154	-2.487383796892307	2.144728902698461
O	4.262435192004616	-3.4671218168923073	1.6066478726984612
O	4.456260472004615	-4.482726306892307	2.522567872698461
O	3.850962172004616	-4.091038306892307	3.6851688826984614
O	3.9125702220046152	-2.754119206892307	3.438901362698461
O	2.638870892004615	-0.030977569892306933	2.010319632698461
O	1.846263852004615	-0.9546625268923069	1.0556787176984612
O	1.6700710820046154	-0.2702802668923069	-0.13728448630153878
O	0.5533000720046153	0.621816452107693	-0.16366417130153876
O	-0.22259103799538482	0.883163454207693	1.0718814186984613
O	-0.5297191309953848	-0.384934766892307	1.4339087226984613
O	0.6360481120046153	-1.218839836892307	1.5935435626984613
O	0.18862490200461512	2.204934223107693	1.7192034226984612
O	0.5647973120046152	3.096911853107693	0.5360233286984613
O	-0.33901346899538476	2.687027113107693	-0.5582527173015388
O	-1.6205779869953847	2.524049573107693	0.29042313769846123
O	-1.9474158429953847	2.721998333107693	1.5534573626984611
O	-3.150714387995385	2.247827593107693	1.7236992526984611
O	-3.349113727995385	1.399277048107693	0.7719127456984612
O	-2.5764848879953846	1.724149971107693	-0.1987755313015388
O	-2.4360222679953845	1.013472794107693	-1.4738037973015388
O	-4.181806077995385	2.627441353107693	2.720897332698461
O	-3.7947799179953847	3.3435204131076928	3.861070082698461
O	-3.829700257995385	2.805135473107693	5.120392372698461
O	-4.098215217995385	1.428202165107693	5.008368812698461
O	-5.344267757995384	1.3297368281076931	4.3458124326984615
O	-5.139716597995385	1.645374602107693	3.0020017226984614
O	3.7731057320046153	15.152238863107693	-0.7777240083015388
O	-13.496149467995386	1.838069439107693	4.106441412698461
O	-12.810748167995385	6.595063343107693	5.859516742698461
O	-11.220543297995386	4.646419393107693	8.732721092698462
O	-7.253661777995385	-7.381337206892306	4.235049782698462
O	-5.170761027995384	-7.549863186892306	7.452108732698461
O	-6.207933457995384	-4.053995526892307	8.585407832698461
O	-5.138386107995385	-2.695683856892307	5.152585062698461
O	-1.9118047159953848	-4.564638686892307	5.347081862698461
O	-1.1891004043953848	-3.310680106892307	8.881224372698462
O	-1.9723225059953848	0.16221430910769308	7.866235092698461
O	0.3012357320046153	0.15130107910769308	4.889880452698462
O	3.0434584120046155	-0.48760061689230694	7.344973102698461
O	2.7880308020046156	2.642321363107693	9.220918532698462
O	3.026159452004616	4.606684153107693	5.923217462698461
O	5.896302212004615	2.507780513107693	4.831392612698461
O	7.975041912004616	3.093123963107693	7.876796972698461
O	7.244492392004616	6.797087283107693	7.5737669526984615
O	8.427523882004614	6.661115293107693	3.928483112698461
O	11.559727232004615	4.6967077531076935	4.944439192698462
O	12.396433232004615	7.624803403107693	7.304379442698461
O	11.824726332004614	10.156269003107694	4.4888062626984615
O	11.404428132004615	-0.198062996892307	-1.3102408473015388
O	8.905120432004615	3.666030783107693	-2.193864607301539
O	7.396194662004615	2.137927113107693	-5.424399127301538
O	4.067281862004616	5.687481183107693	-5.104879927301539
O	3.4825902820046153	5.717308373107693	-8.866164267301539
O	3.2913510220046156	9.548699613107694	-8.389672697301538
O	0.16336870200461528	8.937239313107693	-6.228827277301539
O	-1.4146841219953847	6.391389233107693	-8.646250077301538
O	-3.9520060279953846	5.296843513107693	-5.184622427301539
O	-3.840982047995385	8.309401423107694	-2.9014909173015386
O	-3.4393869279953844	7.4314285431076925	0.7719758236984612
O	-3.0791668679953847	9.374155933107692	4.027486582698462
O	-1.2649321468953847	12.385390063107693	2.636109252698461
O	-3.611967707995385	12.549790463107692	-0.30195953630153877
O	-6.822963507995385	12.774363163107694	1.7351605226984612
O	-8.056483227995384	9.344295323107692	0.6670815436984612
O	-8.232208127995385	3.660186423107693	-2.526799957301539
O	-11.031970057995386	-2.600558516892307	-3.972935397301539
O	-7.420988357995385	-3.673823966892307	-3.395230927301539
O	-7.821589737995384	-6.343814876892307	-6.084957347301539
O	-10.962335077995386	-7.585643536892308	-4.246390317301539
O	-8.961480167995385	-8.568324306892308	-1.1470125673015388
O	-8.597190047995385	-12.288531536892307	-0.4060209823015388
O	-3.4311061579953845	-9.843110236892308	0.06935119529846123
O	-5.2289750779953845	-8.860904756892307	-3.1122194273015387
O	0.07869104200461519	-6.869445116892307	-3.1907950573015387
O	-0.8209469949953847	-3.7786463068923073	-5.174759997301539
O	-1.6748645839953848	-4.837383856892307	-8.647514457301538
O	1.9634430020046152	-5.210869276892307	-9.976408517301538
O	2.5949729920046156	-1.651926546892307	-8.718851007301538
O	-0.4066596989953848	-0.26894679689230705	-10.605946017301537
O	0.8293514820046151	-2.132842876892307	-13.701211017301539
O	4.282954802004616	-0.5132288768923069	-13.273748917301537
O	2.8506880620046156	2.931165713107693	-12.358613817301539
O	8.340463182004614	-5.496579526892307	-8.187790467301538
O	10.269426232004614	-5.703619446892307	-4.879913627301539
O	6.401178072004615	-7.957153786892308	-2.661642307301539
O	9.049820832004615	-10.020059936892308	-0.7994513023015388
O	5.642489202004615	-11.335115036892308	2.5310829926984613
O	2.3811992120046153	-14.381020236892308	4.777399222698461
O	-0.6937853389953847	-15.991462036892308	7.762396362698461
O	-0.15513329799538478	-10.398125336892306	12.518688382698462
O	5.641965712004615	-6.921296406892307	10.356151182698461
