25

O	6.569905514843602	25.314184825707727	19.787934678618377
O	6.513049580832483	25.189602322011623	17.152256600273795
O	4.577123756018079	26.31297676970148	18.27470887452739
O	3.9462766595467236	24.278663656942655	19.170425117864276
O	5.698955233619512	22.83509185217107	19.736929235995607
O	5.836977996609988	22.8595875611122	17.454502583302734
O	3.5566004784242544	27.006247924884956	18.921059004795033
O	3.1181404077018477	24.934354500411402	20.106700026803267
O	4.885534070408124	21.683824798591452	19.658807442289834
O	5.007446535301587	21.73917783287826	17.346819450104405
O	2.781627073155466	26.18916034033535	19.695725771353196
O	4.8433786771030976	25.03256781509013	18.49182723918199
O	6.326154778275123	23.323714844817513	18.635263394790307
O	5.078447871961389	20.973686992756928	18.477468156364758
O	6.353318693980716	24.79542085314145	18.50019789659834
O	2.5448627009260862	20.08776946229613	18.151003656430028
O	3.231158585759913	18.844280592580567	16.021786958156085
O	1.792258154974764	26.88289380545846	20.318390845295863
O	2.8130912317375154	17.544439725560323	17.931865980851953
O	4.7269994443488095	19.67722495872235	18.27158235282652
O	3.936759215591428	19.239984365820185	16.74450638028413
O	4.15797873445033	28.654532073301294	19.76378148594224
O	3.489590740600341	24.422348282864274	21.88469587076658
O	5.209045942601813	20.858698491326063	21.25893693534192
O	5.673455566322808	21.09136646531566	15.730495903279127
