38

O	12.581635473141132	37.75187111477896	31.492063958264424
O	13.933827811740658	38.422145537417045	31.48554792828692
O	14.050870942047897	39.475508778659204	30.678345111455467
O	15.331343380572665	39.775560665370186	30.45920299434644
O	16.03645414317328	39.058738743876	31.260518216379054
O	15.1250172014174	38.40352864098417	31.854576787235878
O	17.133529785641308	39.62669807708499	32.09021597535016
O	16.840678863943705	40.22661767774758	33.2734636054504
O	17.18744353553832	41.52494845040635	33.66207587076971
O	17.798308678191255	42.1667168233592	32.56303793272684
O	18.818222688724475	41.29222775543053	32.11630591081436
O	18.28371177642425	40.10644958987317	31.60721012393287
O	12.81461785222468	39.87898764262959	30.14828641824454
O	11.633254412039689	39.49428226681924	29.437944774436048
O	10.973839401694699	39.914358110066495	28.32568273166223
O	10.631270690651728	40.62269387083607	27.23973970144943
O	10.996350727866751	41.9220298151788	26.850609567817536
O	10.687710267400641	42.44953365188631	25.57988987591273
O	10.209256074181477	41.6277880904604	24.502189739369555
O	10.013150561678684	40.40910555378208	24.959314500801426
O	9.972764304171115	40.05517903743931	26.226095118401005
O	10.042247285207212	39.25531787595667	24.11435093890626
O	10.43349324346425	39.865113703009506	22.962178216707485
O	11.44583991708523	40.80519228130341	22.56745541730991
O	11.894895579624981	39.80048130303494	23.452035091841562
O	11.347566237634785	38.87176704438729	22.608444568671352
O	11.09430247737803	37.73881401545814	22.18252041008643
O	12.22549743728186	39.13743991346051	24.64684859277283
O	11.9037096195732	37.9490074529992	25.228093406050196
O	12.074088466358138	37.66071722138929	26.54312421614458
O	12.961373757856895	38.34934591780057	27.269456551226735
O	13.318657975918333	39.480755024893725	26.615817295756813
O	12.960630302021107	39.89044315454062	25.386224073615782
O	13.843470887858578	38.16128324960186	28.42026839225904
O	14.318004225773468	37.028037816583975	29.067981183202807
O	11.453580625308003	40.7262181755496	21.098920829615693
O	10.97084237029706	39.84528484246248	20.3889881240701
O	11.853554444955407	41.7219449721618	20.245036110129124
