55

O	1.5420539815003447	17.10232051813386	14.072863396429815
O	8.6914278627281	22.30571466431303	14.200167765687166
O	2.7152200899186303	19.448962690711134	13.906983251954616
O	9.554994366116658	22.130483385283924	13.003221056407916
O	5.731980001546134	20.478738896235242	12.594738832008565
O	1.0808305170464743	17.13525623086955	8.806015283992526
O	9.153017966461505	23.247020013175863	12.132166510385272
O	4.76545447572489	21.607915657358816	11.001707808736144
O	-1.2621896950188605	18.585490954799205	10.070796721139867
O	7.628998379229408	23.228878973247795	12.169498723823759
O	5.16912932168083	21.60345097784595	12.290689515491547
O	-0.4729319808190171	14.569843677304801	12.781407810489943
O	7.272047332659351	21.91175996047096	12.088954447893684
O	2.7458220739380756	18.46678103688624	10.095455653499762
O	-1.5747440241615296	15.981657054699403	14.012746413153002
O	8.019536498576912	20.67152342815999	12.23497912853823
O	0.26093274773687636	19.498994228150014	11.448542975278228
O	7.028189752566117	19.859686126596745	12.937648834544266
O	8.204596111459333	23.65006128183264	14.30789624503224
O	6.884444600208189	23.98806620510203	14.729639791156373
O	6.1020814910440935	22.85244651653991	15.02843832278182
O	6.840734308920042	21.697214866827995	15.386068799616346
O	5.902198802780992	20.77748700233266	15.921761657395194
O	4.791555654482682	20.15413042252788	15.358690357570856
O	4.664115692920788	18.922451883452727	14.936624838007962
O	3.525739967141767	18.496089150920973	14.237910754016015
O	2.711804157588089	17.33098852492774	14.374456105976169
O	0.9587340720310271	15.82304103116168	14.06996191535812
O	5.2787223112642785	19.685347358703538	11.684357322012143
O	5.256705521381918	20.47323835444715	10.507778818572515
O	5.310209468706613	18.21125160705198	11.7186034901783
O	4.2869661931275935	17.299809500982708	11.422833250458861
O	2.9726098867071666	17.939469769457038	11.375448997929661
O	3.6519295861347465	19.047017715254533	9.2067860481983
O	4.5332801428665	20.071496210435896	9.31675064734258
O	6.429579669955279	17.968052498085168	12.421050525448674
O	6.2928265642216346	16.709420582383352	13.033520844217245
O	5.236807805101816	15.839916013665308	12.947933613695653
O	4.425836405441005	16.065608391950263	11.923961861786793
O	3.226797494222312	18.785027333720752	7.968328609362426
O	3.754311211413404	19.424909713265347	6.90550106121563
O	4.881965685406907	20.146025509195535	7.160699482735021
O	5.332967398136133	20.619362051144364	8.422466394101946
O	2.1945571437440625	17.453952981983363	9.32148723945283
O	2.660320733206485	16.22942042489247	9.982701010232985
O	1.640323535558164	16.009556232618852	11.026871353879432
O	0.8080162137690898	17.16477929658067	11.030478891447816
O	-0.4291190623187422	17.379440060359958	11.55351182748471
O	-0.18374790041740585	18.590372158390924	12.445710627594021
O	-0.39366786513063623	19.432041423894795	10.245167853349448
O	-0.33501056197485113	15.347213670349678	13.793821014493686
O	0.1819043303351373	20.156215354717716	9.116858903185667
O	-0.8366421712063605	21.016469507919695	8.837652605710595
O	0.2847936416311434	19.582443611506385	7.897622167561319
O	1.2800386615702153	20.901684250943457	9.276436663296279
