101

O	0.6017603663279418	-5.990359989617646	0.3507184300264705
O	-1.617495443672058	2.718419580382354	4.747217787026471
O	1.591047776327942	0.660701678382354	-1.7510699129735294
O	-0.8264339506720582	-0.13359182961764593	0.8013121640264705
O	-0.4868942480720581	-0.7337814796176458	2.3330702270264707
O	0.1917025063279419	-1.769483939617646	2.2531865470264707
O	-0.007732905672058088	-2.2968308096176457	1.1204323370264706
O	-0.08972423567205812	-1.490273289617646	0.04462671802647053
O	-0.20598234167205812	-3.625195299617646	1.1069028970264705
O	0.21447067332794184	-4.332220899617646	0.04592944902647053
O	0.47964495632794185	-3.493263479617646	-0.9738714149735295
O	-0.18752718167205812	-2.317124399617646	-1.0035757989735294
O	-0.02328224567205811	-0.2834198996176458	3.960617117026471
O	1.4932633163279418	2.9656803103823544	2.4399059070264704
O	0.35083737532794185	3.0064686103823544	1.6103111870264706
O	-0.6729925746720582	3.4005862903823543	2.4124344670264706
O	-0.743748502672058	2.314924580382354	3.3180130770264706
O	0.2333880903279419	1.422620995382354	3.3859611170264703
O	1.446119766327942	1.495368345382354	2.8651903070264706
O	2.127968506327942	2.682821480382354	-0.10730828257352948
O	2.388270416327942	3.1274397603823543	-1.4184599829735296
O	2.8020613163279418	3.817938870382354	0.6367324610264705
O	0.4630279623279419	3.260780370382354	0.18448500202647053
O	2.295143936327942	1.1271754773823541	0.6203345130264705
O	2.5000051863279418	0.43768483838235417	1.6654937270264705
O	2.853621456327942	-1.0662594596176458	1.8854866170264706
O	3.103238266327942	-1.976187619617646	0.9498229470264705
O	3.243334746327942	-3.449344889617646	0.9914307070264705
O	2.949921586327942	-1.3686903896176457	-0.21412994427352947
O	2.406554976327942	0.1260503123823541	-0.23698589627352948
O	3.272237116327942	-4.105608219617646	-0.20895937087352948
O	2.622365576327942	-4.098929419617646	2.0008661370264704
O	4.491861976327941	-3.948903749617646	1.2121302570264705
O	7.573555416327942	1.2721441083823541	-13.78054967297353
O	1.4657207363279419	-11.116679329617646	-3.7636112929735295
O	-2.778939513672058	-13.877617029617646	-0.8126889259735295
O	1.9683589263279417	-15.692096529617643	-1.3606862629735295
O	2.928705086327942	-12.742392729617645	0.8341374830264705
O	7.586811106327941	-12.890343329617647	-1.1041400759735294
O	8.336268316327942	-11.742027329617645	2.4453791370264706
O	-2.843318203672058	-6.635551269617646	8.036545937026471
O	-0.3651630469720581	-5.2790027396176455	10.63572492702647
O	2.7642907163279418	-6.672416069617646	8.81555304702647
O	1.7364193763279419	-5.034224319617646	5.753260927026471
O	1.051657926327942	-1.7254535696176458	7.722716267026471
O	4.435334706327941	-1.8292544896176457	9.32646875702647
O	6.156674956327942	-2.6885238296176457	6.019748447026471
O	4.857353976327942	0.32622828138235416	4.587478107026471
O	6.057453946327941	2.763522420382354	6.848932477026471
O	9.635171076327943	1.8272771783823543	6.0091043370264705
O	9.023487646327942	2.629998310382354	2.2798402570264704
O	7.065484846327942	5.821030380382354	3.2985987670264705
O	9.898692576327942	7.163195760382354	5.297181927026471
O	12.373832376327943	6.2921404303823545	2.5062916370264703
O	10.150403976327942	8.220093630382355	0.07051081002647053
O	9.942213176327943	11.186153170382354	2.5206531270264705
O	13.780899776327942	11.312352570382355	2.3440117370264706
O	2.185659316327942	12.657836370382356	1.3370438270264704
O	4.014309456327942	10.187199140382354	-2.2609201329735296
O	0.49635181532794187	9.363392250382354	-3.5844946329735294
O	2.685866366327942	5.914498240382354	-6.341996192973529
O	0.07847079332794188	6.197709340382354	-9.15177205297353
O	3.531084846327942	2.178708020382354	-10.01120679297353
O	-0.2302675096720581	1.303264501382354	-10.06369463297353
O	-2.409080913672058	-3.716433999617646	-8.17137365297353
O	0.832699266327942	-1.9445153096176457	-7.272228142973529
O	4.5992435463279415	-2.5044771696176458	-7.747989912973529
O	6.589487536327941	-2.9515767096176457	-4.445607462973529
O	10.269603676327943	-3.306887469617646	-3.3723687929735293
O	9.460908166327942	-3.0333753496176454	-8.71252799297353
O	6.911770656327941	-7.429998919617646	-6.250158212973529
O	3.3369496163279417	-6.7538578596176455	-7.401309452973529
O	0.5925065793279418	-6.610754789617646	-4.737484002973529
O	-2.931496063672058	-7.070900239617646	-6.062940632973529
O	-5.6722194136720585	-4.498359169617646	-5.369757372973529
O	-5.360213463672059	-8.683181499617646	-1.6567111729735295
O	-5.300267963672058	-5.2644403496176455	-0.11294241177352947
O	-9.075681313672058	-4.9374540896176455	-0.27192054497352947
O	-9.301611363672057	-8.361118089617644	1.5016830970264705
O	-7.596011463672059	-7.043193239617646	4.675520067026471
O	-9.734550323672057	-6.719154489617646	7.805378557026471
O	-6.804384443672059	-1.913279449617646	7.154336407026471
O	-8.612794713672058	-2.984128909617646	3.9476754470264708
O	-9.744769813672058	0.6323072003823541	3.3456343670264705
O	-6.328199813672058	2.2386460103823542	3.2048229370264707
O	-5.1003599936720585	1.6307583423823542	-0.3762793859735295
O	-8.362997423672057	1.633044804382354	-2.2965920729735294
O	-8.793028363672057	5.4848641603823545	-2.5251156029735293
O	-5.224719033672058	5.646167800382354	-3.9208861329735294
O	-6.0712480636720585	3.0738072403823544	-6.626246282973529
O	-9.259362383672057	5.022172800382354	-7.417921202973529
O	-7.172324153672059	8.206979610382355	-7.775367452973529
O	-4.376807463672058	6.467911930382354	-9.70726661297353
O	-6.624487903672058	5.011737420382354	-12.43806037297353
O	-6.699096513672059	11.318543170382355	-0.2922426399735295
O	-4.395522853672058	12.548626570382353	2.4912182470264703
O	-5.615705043672058	8.427628520382354	5.155360297026471
O	-5.234205973672059	10.704556900382354	8.26050074702647
O	-4.798649353672059	6.6470801403823545	11.22817792702647
O	-5.943610413672059	2.9826011503823544	14.47146742702647
O	-5.612608003672059	-0.6415082096176459	17.266100727026473
