41

O	5.557285209628731	21.073183454713256	13.885938446453835
O	6.599203283279925	20.13168372979865	13.898190258620293
O	7.859511641695454	20.339767882482526	13.332037939726183
O	7.906722186964207	21.21396071290541	12.28681750972876
O	6.696244386239311	21.684334197791912	11.783388341285747
O	5.657487880999275	21.647136497937407	12.661879810094689
O	6.334775602184174	22.79697805767561	16.602268570366338
O	6.247697107228603	21.608837956990556	16.973124719283124
O	5.261106675280741	20.882553436675085	16.257516306285567
O	4.978407723076452	21.668243192424143	15.156586739734495
O	4.131159580281466	22.392848441380615	15.882986698503874
O	4.94785840882337	23.166533066291322	16.788456635324618
O	6.172035124329041	23.969856153973897	14.92594177264805
O	6.252496904804378	26.378639367751457	15.518092819829635
O	6.8641043856457395	25.897056490517596	14.358251417224363
O	6.5092007229176705	24.555517097239687	13.847509361989273
O	4.979276019421521	24.61214628175929	15.272547819358326
O	4.977716332737497	25.954228515081887	15.493931027036702
O	4.852943066014841	26.549564569365693	18.53185550990077
O	2.757971982850364	27.295778645993344	17.507534573569366
O	2.5833878803728383	28.053751795862084	18.656806463437082
O	3.7669007984545484	28.530414248028627	19.154818634147173
O	4.920734553073855	27.868274847467525	18.796822586136805
O	3.88621803376608	26.53341233609017	17.52476084513723
O	1.0571199446893562	28.60809502209666	17.307435764059555
O	1.2925733437575184	28.379145865855417	18.594876321181047
O	1.802574224964527	27.71381399161902	16.593716956365085
O	-0.811856912689251	28.243609414647615	19.53975029108123
O	-1.3034417825604008	28.23914760892533	18.397935507678163
O	-0.9287521362725517	27.101312021325064	20.283043266734353
O	0.5292102108287491	28.889686027194756	19.67937892570312
O	5.345079376280399	25.38015247245841	18.988408557053887
O	6.588159364408586	24.81530871123895	18.915018957113194
O	7.463006328853527	25.182149926740983	17.694479787844028
O	7.088745949630726	26.58605725396412	17.877739775522627
O	6.861027780373377	26.764616724080636	16.61216091952303
O	7.141434554518801	22.94143440852043	15.357084563045161
O	8.314065133367762	22.867591030388365	15.655905470786315
O	8.376962142711193	25.944294673677536	14.496129183669495
O	8.989137461938975	24.90414093078884	13.533669708790422
O	8.280612982284998	24.542363424886855	12.269478388764727
