27

O	5.40804926570965	19.48406539868443	20.615523032579528
O	5.59794039774472	20.865195312774237	21.100375844000784
O	6.583016943276358	21.48895636293698	20.24664211633803
O	6.6969393769779835	21.23047477424324	19.022915455240472
O	6.193054200870836	19.831145992602938	18.71631963720181
O	5.525413067765973	20.16166947010841	17.44229647530905
O	6.226799098401553	20.765728764560762	16.518684238763704
O	7.344854609471598	21.555388215343665	17.06725944654179
O	7.689398446876197	22.51218849162699	16.02500776108389
O	7.780006977662952	23.760282675671643	16.35011078718961
O	7.914024963514025	24.066868376606916	17.77603115497473
O	8.08051847907437	25.519972829725532	17.80385546480947
O	7.375441906506097	26.260443538564044	18.61026311901634
O	6.535821510320976	25.43741456275615	19.503263235327868
O	5.616741394258408	26.36268781817962	20.169117238672303
O	5.012227082909118	27.28897001892501	19.215267587247794
O	4.441169736734659	26.738857355738567	17.965662650600148
O	4.841433529026387	25.39956509650736	17.849225261213622
O	4.421055438884624	24.137977018938415	18.32793570102805
O	4.2741565481452515	23.334627747183948	19.461424023343735
O	4.031348554217235	23.636188895773994	20.857029025525446
O	2.9786549358494985	24.666354082786643	20.912332586825315
O	2.5703397121636176	24.997106601597967	19.60189093272906
O	1.428023662477056	25.82852090436427	19.582981847913608
O	0.29728989457959276	25.45648209560136	19.84021627186828
O	1.5283570692605686	27.109597751379212	19.300283414140956
O	4.885672445403569	23.333430673970955	17.491084405878212
