80

O	2.784498158526315	-1.2804562801578947	-4.243899881370176
O	2.556329978526315	0.1568546078421051	-3.912552361370176
O	1.867222628526315	0.1641710998421051	-2.5527560413701758
O	2.859804928526315	-0.6294519101578949	-1.8444202513701757
O	2.8828691685263146	-0.2314418021578949	-0.4311707793701758
O	1.5235740985263146	-0.3737598901578948	0.03674908652982426
O	1.178661988526315	0.36377942084210513	0.8887183356298243
O	0.6561404885263148	-1.374334920157895	-0.5231143913701758
O	1.376114248526315	-2.3211378301578947	-1.3875564313701756
O	2.347037328526315	-3.0529250701578947	-0.5986022673701757
O	1.6440034185263146	-3.663668550157895	0.3746121476298243
O	1.8264461385263147	-2.750015130157895	1.5567394486298243
O	1.7960243785263148	-3.8099078701578946	2.6195183886298246
O	2.405052858526315	-3.5567473701578947	3.7172923886298244
O	3.271389598526315	-2.414371020157895	3.998874888629824
O	2.9782031185263147	-1.5550412301578946	2.7968896386298243
O	3.474154058526315	-0.3838554501578949	2.8113641986298243
O	3.779906608526315	0.4714411168421051	3.9100229786298244
O	3.0558533185263146	1.7641608098421053	4.0579271186298245
O	2.6809282685263147	2.5006790098421052	2.815886758629824
O	2.7897921585263146	3.9702899998421053	3.024214228629824
O	2.6348724085263147	4.493347809842105	4.1663603786298244
O	2.7914493885263147	4.764902789842105	1.8747234986298242
O	0.26913073852631497	13.507681889842106	6.147619178629824
O	-2.488118481473685	11.092130189842106	5.024184158629824
O	-8.771751251473685	11.001540689842106	6.257463028629824
O	-8.465164751473685	7.813072309842105	4.186926998629825
O	-4.588213001473685	-8.668447900157894	6.003293698629824
O	0.02913049552631486	-7.619619610157895	11.097626188629823
O	3.736791738526315	-7.844435660157894	10.271851188629823
O	2.040640398526315	-3.934865860157895	14.185535788629824
O	5.256639228526315	-12.200001310157894	-2.2913162313701756
O	8.842630828526314	-10.904350410157894	-1.9427151413701758
O	8.268909228526315	-9.541920010157895	1.6062045786298242
O	5.323673608526315	-7.673018810157894	0.26644496062982426
O	7.276849678526315	-6.334395240157895	-2.756372431370176
O	10.163736148526315	-5.290952250157895	-0.5055643923701758
O	7.803215348526315	-3.633915100157895	1.8804759386298244
O	6.440545408526315	-1.672228970157895	-0.8070895683701758
O	9.712961748526315	-0.10633882715789489	-1.6483444813701758
O	10.091417648526315	1.540127670842105	1.6595852286298243
O	6.655795568526314	3.2476424298421054	1.2709116286298243
O	7.464098368526315	4.096705179842105	-2.3044092913701757
O	10.639994748526314	5.927105629842105	-1.4315707213701756
O	8.876857978526315	7.723504319842105	1.4416855986298243
O	6.1457789285263145	8.792565839842105	-1.0255723813701756
O	8.799930158526315	9.920783309842106	-3.5632394113701755
O	10.181686348526314	12.238344689842105	-0.8100123213701758
O	6.674940498526315	13.599580789842106	-0.11219027537017573
O	4.940165758526315	7.244976379842105	-9.985969411370176
O	1.9998829585263147	7.707881229842105	-6.334279481370175
O	-0.7149506534736851	5.645745749842105	-8.129784221370176
O	-2.8853446214736853	5.409515879842105	-3.7729698913701757
O	-6.3559571014736855	5.312347469842105	-5.283603901370175
O	-7.321324321473686	7.6287274498421045	-2.3478155313701756
O	-6.492030851473685	4.696441929842105	-0.026393861570175745
O	-8.277372841473685	2.035133949842105	-2.1432647813701755
O	-8.459609641473685	-3.5342203701578945	-0.8079010663701758
O	-5.9142389814736855	-0.8804558901578948	0.14883950192982426
O	-4.968354561473685	0.9726571438421051	3.3271431386298245
O	-1.411873053473685	0.4986808158421051	4.414424598629824
O	0.9222382585263148	1.8354217298421052	7.216508868629824
O	-0.5140181644736851	5.221303659842105	7.5181090486298245
O	-4.007210701473685	3.7236490898421053	7.400072768629824
O	-3.508050011473685	1.233614324842105	10.257859888629824
O	-3.8178376214736853	-1.828146140157895	8.047488218629823
O	-6.053521451473685	-2.880221690157895	5.160272288629824
O	-4.8694935814736855	-5.437428660157895	2.643355428629824
O	-7.431984841473685	-7.109394580157895	0.5662690386298243
O	-7.340639221473685	-7.022666130157895	-3.1932754113701756
O	-4.864283201473685	-11.475518410157894	-0.9936541113701757
O	-2.703784771473685	-9.480254010157894	-3.3894510913701756
O	-3.4043477914736853	-14.611634110157894	-4.617363021370176
O	0.352664478526315	-13.929558010157894	-4.826015241370175
O	1.2262170085263149	-5.939425990157895	-9.673410421370177
O	-1.766473407473685	-4.360959290157895	-7.889363201370176
O	-4.220795651473685	-0.06344315015789492	-9.874985631370176
O	-7.435433081473685	-1.2988220201578948	-8.231086801370177
O	-8.729493441473684	3.394832079842105	-8.587130911370176
O	-12.354852251473686	2.2149245898421053	-8.694036311370176
