13

O	1.666179582249784	26.523959084094855	20.14989170391563
O	2.6543416684653014	26.26819924557869	19.04680517812893
O	3.9848341311270215	26.08443115501516	19.663267843508503
O	4.256061720856873	24.99480578051682	20.34085002137332
O	5.233007178170842	26.83895165980473	19.65082623616188
O	6.132121016999788	26.17165872842089	20.686974271233833
O	6.125903399301989	26.67959119185777	18.467366294569572
O	5.695622933885574	24.953506741699723	20.472066555975672
O	7.398846262088365	26.89258773197192	20.87399495343358
O	7.4618592651071385	26.746582747046315	18.552240510530115
O	1.9724784318906545	27.74236829888626	20.871680276598283
O	7.953373397110299	27.444633094242118	19.76470494390083
O	8.258774250036218	26.080902759230664	17.647987706872406
