81

O	-0.3156409465245903	-0.4290492197147534	-3.1082069583655736
O	3.2216669324754097	0.7558574972852465	-1.6781564283655737
O	3.30757386247541	1.0193513812852464	-0.3227878198655737
O	2.8242546224754097	-0.48961252971475344	-2.004215658365574
O	2.1877558124754097	0.5259262752852465	0.3382947216344263
O	2.15387052247541	-1.2294813997147536	-1.0792348143655737
O	-0.9556979455245903	0.6438084812852465	0.31573242263442625
O	-1.1247336815245903	-1.3241590397147536	-0.8002918623655737
O	-1.3291657395245902	0.04525637728524645	1.4699890616344262
O	-1.2947102365245904	-1.9857455797147532	0.36360335163442625
O	-0.3883024085245903	0.5657078032852465	-2.024200248365574
O	1.0093393924754097	-1.6786850597147533	0.8215354516344262
O	0.9959960424754097	-0.12033304671475353	2.457645301634426
O	-1.1788803465245903	0.027921248285246447	-0.9100654943655737
O	2.0091796424754094	-0.8102510797147534	0.21750955863442628
O	-1.4916517795245903	-1.3113799697147535	1.5365552716344264
O	0.6799309424754096	-1.5549517997147535	2.1906485816344263
O	0.3984329424754096	0.23870569228524652	3.4830808516344263
O	2.38394881247541	-0.19429709971475362	2.713853771634426
O	-0.6277243057245903	-1.8916680797147536	2.4898570016344266
O	-9.00300552752459	-4.874184219714754	-7.617002688365574
O	-6.71168960752459	-9.657997309714753	-5.865370508365574
O	-7.42277606752459	-7.1431222797147536	-3.068763828365574
O	-4.171620867524591	-5.336372509714754	-3.8719879083655737
O	-2.1673271275245902	-8.612615529714754	-3.8453932883655737
O	-3.9078220875245906	-9.514656509714753	-0.5664304653655737
O	-2.9162696075245904	-6.148642149714754	1.0670721716344262
O	0.7162084224754097	-7.089192819714754	0.3732518986344263
O	0.8465729724754096	-10.306921709714754	2.327584271634426
O	-0.6212134845245902	-8.531927819714753	5.409205601634426
O	1.6928626624754097	-5.525079759714754	4.763372831634426
O	4.856770742475409	-7.6979991697147545	4.869370701634426
O	3.5784061424754094	-9.486929309714753	7.969695191634425
O	3.0429862624754094	-6.093843929714754	9.652239341634425
O	6.553911342475409	-4.958103509714753	8.560083191634426
O	7.90358031247541	-8.008295059714753	10.479460911634426
O	12.453186932475411	2.0233730802852463	5.595327781634426
O	7.38234345247541	1.4059093662852464	8.660607481634425
O	4.39891823247541	2.5517181402852467	6.591642571634426
O	1.1840897624754096	0.5146103022852465	9.351315741634426
O	-1.3257306075245903	3.3424005102852465	8.616502741634426
O	-2.2931313275245904	0.9812071142852465	13.431510211634427
O	-4.64640605752459	0.33767513028524654	10.532991511634426
O	-6.752359617524591	3.2487962702852466	11.858191611634426
O	-9.17535484752459	-7.716060959714754	7.749986411634426
O	-12.98068466752459	-0.2817877697147536	-1.7118341183655736
O	-12.700682367524589	-0.42912582971475344	-7.288925108365574
O	-8.93490211752459	3.4599044302852464	-11.225574888365573
O	-6.42536758752459	3.6079152902852467	-9.834737898365574
O	-7.07920682752459	0.9343486588852465	-7.108903538365574
O	-10.18779562752459	2.6165682502852463	-5.732877738365574
O	-8.10504764752459	5.630352020285246	-4.605317178365574
O	-5.806822957524591	3.639740350285247	-2.3461939083655734
O	-7.76917252752459	3.3053166202852466	0.9046100016344263
O	-9.86362086752459	6.4561716302852465	0.9819518116344264
O	-7.11346738752459	8.857800330285247	2.3070749716344263
O	-6.4831255275245905	6.302416200285246	5.107257541634426
O	-7.0565716175245905	10.090352640285246	8.372347961634427
O	1.4290188324754098	12.822941890285247	3.2228579516344267
O	-0.6006809745245902	9.595878620285246	3.3879075016344267
O	2.54185692247541	7.5644809702852465	2.5465809816344267
O	3.386917822475409	10.093370530285247	-0.17045680726557372
O	-0.011732762524590323	9.640142510285248	-1.8591591283655737
O	0.2608515214754097	5.950828400285246	-1.6033532583655736
O	3.7352647024754093	5.876659780285246	-3.1843330683655733
O	-0.23523734852459027	5.539902450285246	-6.6695224883655735
O	2.2358832624754097	2.6565636602852467	-6.678783518365574
O	4.38543189247541	4.444321560285246	-9.236231308365573
O	0.7078648624754098	0.9818124902852465	-11.103465688365574
O	4.3692042324754095	0.19257888228524644	-11.806588888365575
O	4.1871398524754095	2.3264592902852463	-14.987406988365574
O	4.276944902475409	-7.318445259714754	-9.105397268365573
O	5.09481059247541	-6.097474579714754	-5.658314008365574
O	6.3391061224754095	-8.454047929714752	-2.889086548365574
O	10.28317513247541	-6.888281519714754	0.7837447816344263
O	7.982480292475409	-4.048999219714754	-0.2681793431655737
O	10.11329113247541	-3.3967516997147533	-3.4099989783655733
O	11.27313463247541	-0.5785066897147536	1.2767839516344264
O	10.05911553247541	1.5298028702852466	-1.6800687583655738
O	12.43188883247541	5.925101470285246	-0.8358691933655737
O	12.76560733247541	9.747943340285246	-0.9150013293655737
