30

O	4.680302578269274	23.903898703281858	17.30808137258295
O	3.765806684652107	23.631469692488402	19.402895922585557
O	2.6060850006439145	24.808487104614954	18.15312491008217
O	4.733469865512965	22.55381567432694	17.122409673833168
O	-1.8757928370975732	26.69743586822195	19.328827636369656
O	5.320026819146011	24.485445902575133	16.296870605841647
O	-1.1311223332780553	28.61025662265775	19.838057961601894
O	3.7411335261617924	24.42337706718955	18.244387955602814
O	6.589646934291722	25.484851980574348	19.17964083900543
O	6.319417554350059	23.83515580742925	15.511133233576064
O	6.332017722913866	22.47733465912594	15.426928051957436
O	5.914132468597021	21.932849306560236	16.62687227691977
O	7.567473189305588	25.464238556008528	18.197000659986685
O	4.360768244906707	24.229823979050337	20.530723077572805
O	4.319289594606002	25.667795855879035	20.082515729990533
O	5.261226638992458	25.970188358923643	19.11562109681796
O	3.015132755137194	26.052817831548815	20.017300532656872
O	4.903261574143825	27.110701856027546	18.404684419561693
O	3.7446760998646273	27.70105822624477	18.785778257815352
O	2.755639889830967	27.30806553218127	19.576458167051378
O	7.143751713209439	21.59544893474836	14.614049331828456
O	1.3939490696081576	27.7030951593018	19.979923075550186
O	1.085819437782586	28.66232839753604	17.732410995692423
O	-0.9208753278625865	27.251920552288883	19.883151979614198
O	0.4119011177175498	26.863406986225417	19.304852183204964
O	0.24551335661481755	27.40556107522332	17.935849787149394
O	1.9793721319622275	28.345316010802154	16.542419825604078
O	8.456991951590313	21.812135908038055	14.874265455618461
O	7.1523864815327745	21.616741623210267	13.272238484123015
O	7.025390994276966	20.242858385407697	14.936210580309034
