96

O	-0.044616231405796736	-1.3051772711724632	-0.7825009026231885
O	-1.3169326309057967	-1.5383406611724633	-1.2820835246231885
O	-2.2030629794057965	-1.6972974211724634	-0.16269574062318848
O	-1.4695012914057968	-1.3888898911724632	0.9335217343768115
O	-0.47930147440579685	-0.614928701172463	0.35830847437681157
O	-0.7351633094057968	-0.28345889117246303	2.9737998343768113
O	-0.14683591140579688	0.6834631138275369	2.2067822243768114
O	0.38260468859420316	0.19618284782753692	1.0451200643768117
O	-1.5065787884057968	-1.202197491172463	2.2664592443768115
O	-0.9210030294057968	0.28731249882753696	4.2432207743768116
O	-0.0004376714057967579	1.418357027827537	4.4987011343768115
O	-2.742436311405797	-2.984567221172463	-0.4580182226231885
O	-4.267887921405797	-2.773777131172463	-0.3291963506231884
O	-4.697814811405797	-2.894124981172463	-1.7302629476231886
O	0.9999589385942032	-0.5054134511724632	-2.0134315056231884
O	0.02905279859420329	0.9205919483275369	-2.0560566056231884
O	-1.2216932348057967	0.886209247727537	-1.2569714386231885
O	-1.3853694914057968	2.108811008827537	-0.5061121726231885
O	-0.3230012174057968	2.9928763188275367	-0.3834889716231885
O	-0.1337090314057967	3.130452588827537	-1.7888412776231886
O	-0.4734452734057968	1.971970506827537	-2.5998759956231883
O	1.0871328785942032	-1.298195471172463	-3.2385143956231888
O	2.353793878594203	-0.29594244117246304	-1.4459687416231883
O	-5.060852131405797	-1.899955411172463	-2.3648977356231886
O	-4.992892041405797	-4.1273247711724625	-2.2368633856231885
O	0.3799403885942032	3.485636308827537	0.6828620343768116
O	1.744811948594203	3.767810948827537	0.7248893143768115
O	3.804174998594203	11.330797678827537	10.408684914376812
O	-14.172774961405796	4.679611658827537	5.857858594376812
O	-2.0648831604057967	-0.972436441172463	11.943061214376812
O	-5.502551321405797	-1.5401862311724632	10.354900014376812
O	-6.362735601405797	2.140517048827537	9.92360741437681
O	-3.2891734414057967	2.376889908827537	7.705560134376811
O	-4.333156091405797	-0.7584167711724631	5.871686314376812
O	-7.646959811405797	0.9248970597275369	5.053813424376812
O	-5.959928051405797	4.156738558827537	3.9322035943768117
O	-4.116693441405797	2.152918988827537	1.5697325843768115
O	-7.0008538914057965	0.5624534418275369	-0.03230064562318846
O	-8.827657531405796	3.765552738827537	-0.6511285156231885
O	-5.681942261405796	4.967243828827537	-2.2561079656231886
O	-5.449736921405798	2.161547208827537	-4.798475345623189
O	-9.158214041405797	2.677072448827537	-5.3853638056231885
O	-8.689816521405797	6.198304048827537	-6.762385915623188
O	-5.478745241405797	5.069220498827537	-8.542544905623188
O	-7.417068401405796	2.350324278827537	-10.299556635623189
O	-9.904810601405796	5.073088608827537	-11.14431588562319
O	-7.321450161405798	7.387858738827537	-12.75019338562319
O	-5.626819571405797	4.340531478827537	-14.327875385623189
O	-3.0482016514057966	-1.9176855711724632	-11.999501685623189
O	-0.8995594574057968	-3.140991761172463	-9.112148175623188
O	0.6224699585942033	1.331579890827537	-8.865497865623189
O	3.9637341885942035	0.2437429718275369	-7.413445365623188
O	5.963904058594203	1.945538568827537	-10.085103025623189
O	4.154633548594203	5.245583348827537	-9.48187309562319
O	4.574535688594203	4.861573828827537	-5.7222358856231885
O	8.344558978594204	5.045019748827538	-6.132346625623188
O	7.5701529385942035	8.274812188827537	-7.962720935623188
O	6.296087998594203	9.729478308827538	-4.642480185623189
O	8.700917488594204	8.123566168827537	-2.1561417956231885
O	6.216359008594203	8.632492408827536	1.1509095443768116
O	3.9220177585942033	11.547599778827538	0.48016065437681144
O	0.3076055285942032	11.148021778827538	1.5281518443768114
O	4.900110418594203	12.738512178827538	4.868224694376812
O	4.467857118594203	9.261348768827537	6.308440264376812
O	6.394659308594203	4.481907748827537	11.47408401437681
O	5.330367478594203	2.263332228827537	8.57620458437681
O	7.375248258594203	-0.7332083911724631	9.626332714376812
O	6.268346288594204	-0.5525636111724631	13.30455201437681
O	2.735271288594203	-1.7499434211724632	12.45037431437681
O	1.8464455085942033	-5.355984031172463	13.283020814376812
O	3.520978828594203	-7.894048521172463	11.025329114376811
O	0.3193515685942032	-8.852146221172463	9.184600414376812
O	0.6127289485942031	-5.380469641172462	7.615751084376812
O	4.303125868594202	-4.371868911172463	7.854172404376812
O	4.919406588594203	-7.4234722711724626	5.691649074376812
O	3.497817118594203	-5.843208931172462	2.5790893243768114
O	4.9232357785942025	-2.2957294911724633	3.0360992743768116
O	8.651544728594203	-2.7621415811724632	2.9126744943768115
O	9.004812438594204	-4.864902711172463	-0.29988587562318847
O	7.602966778594203	-1.7809024111724634	-2.0794096156231885
O	10.082260838594204	0.6265933808275369	-0.4645192376231885
O	11.706926638594204	-1.5391836311724632	-5.054017745623188
O	10.910249638594204	2.129507528827537	-4.923005635623189
O	6.276561248594204	-7.818881671172463	-6.588483145623188
O	2.511674188594203	-7.961396551172463	-7.141614675623188
O	2.5197833985942033	-11.726066321172462	-7.3230191556231885
O	4.069870858594204	-11.714499821172463	-3.8525214856231886
O	1.976934528594203	-8.796131631172463	-2.7809966856231885
O	-1.1782918994057967	-10.830706221172463	-3.5504722356231886
O	-2.9637777614057965	-9.923303121172463	0.9560820043768116
O	-10.185419011405797	-6.5935593611724626	8.85733302437681
O	-12.481818361405796	-5.551710041172463	5.982652214376812
O	-11.194516071405797	-5.650352461172463	2.375256874376811
O	-9.599660631405797	-5.134065061172462	-4.242671405623188
O	-8.612407081405797	-7.944143211172463	-8.562256045623188
O	-7.000064841405797	-10.571473021172462	-6.355636985623188
