75

O	-0.26218754766666685	3.693617335380953	2.332446659587302
O	0.07623873233333311	4.771812905380952	2.813143999587302
O	0.4599020423333331	2.5106711853809527	2.6293993095873023
O	-1.509534557266667	3.7258993653809522	1.8325899295873018
O	0.5464946523333332	1.4070680733809526	1.6455618995873018
O	1.4812853523333331	0.43991147908095257	2.3044483095873023
O	1.3461105123333332	-0.9903981946190474	1.9510283095873018
O	-0.10779491766666682	-1.4031069646190475	2.064443679587302
O	-0.6253899976666669	-1.3776564146190475	0.6529767985873018
O	-1.612320067666667	-2.4691714346190476	0.35603345058730196
O	-2.952054217666667	-1.9264459046190476	0.7515712305873019
O	-3.9636452376666673	-1.7693701646190474	-0.3300005724126981
O	-2.878438067666667	-17.088481414619046	0.5936501365873019
O	-5.728115117666667	-7.242164114619047	-3.733098200412698
O	-8.177025227666666	-5.475652714619048	-1.385487290412698
O	-7.744817697666667	-8.074505074619047	1.4238632195873018
O	-3.914853767666667	-7.802385824619048	1.2479027495873019
O	-4.434534527666667	-4.296336824619048	1.345969499587302
O	-6.673301997666667	-3.9829050646190476	4.259501009587302
O	-4.184662307666667	-6.319240264619047	5.9714865595873015
O	-1.172794283666667	-4.080149824619047	5.416093839587302
O	-3.1478526176666666	-1.3526501246190474	7.2618954595873015
O	-3.472331697666667	-3.062672654619047	10.503991789587301
O	0.317228792333333	-3.7409069446190477	10.5339835895873
O	0.966675552333333	-0.15504206961904743	9.366198909587302
O	-0.9593532846666668	1.3130724463809527	12.358555189587301
O	4.101656412333333	0.04677847638095256	13.369567289587302
O	3.078890022333333	3.7314326153809523	13.687806489587302
O	6.412294372333333	6.024978055380952	6.778902909587302
O	8.176576252333334	1.9329183153809526	8.242161839587302
O	9.837143822333333	1.3825628283809526	4.828549379587302
O	10.378601722333332	-3.2414459246190477	6.300639739587302
O	13.619889022333332	-3.6613923146190475	4.303496569587302
O	12.073071722333333	-8.163358454619047	6.655203839587301
O	4.617174672333333	-10.892885014619047	7.444387679587302
O	2.4905235223333335	-9.004256714619048	-4.877615690412698
O	3.539265732333333	-8.006928724619048	-8.3802570604127
O	-1.995438781666667	-8.086888004619048	-8.077075310412699
O	-4.246381917666667	-6.036266314619048	-10.3406069104127
O	-3.6645216676666665	-2.3530068446190473	-11.066718310412698
O	-3.105217147666667	-0.3633053176190475	-9.061833030412698
O	-2.3957319486666666	-2.6613337346190473	-6.0517111204126985
O	0.3867660123333332	-4.5926730546190475	-7.764024750412698
O	2.5179625523333335	-1.4184547946190476	-7.922416940412699
O	2.5928123823333333	-0.7462084746190474	-4.206112180412698
O	5.3220345223333325	-3.041045424619047	-2.9060596804126977
O	7.736538592333332	-3.2251782046190476	-5.844089940412698
O	9.507286522333333	0.16454169638095256	-5.208941040412698
O	10.027406922333332	-0.9664325946190475	-1.5836844504126981
O	11.665119822333333	-4.223028054619047	-2.717687750412698
O	14.943299022333333	0.047493687380952554	-2.276460730412698
O	15.315789822333334	-2.8377843046190474	0.21369041358730195
O	9.293487122333334	5.924935735380952	-1.9546764304126982
O	6.759553082333333	7.722081105380952	0.25020866058730196
O	5.9262593123333325	10.051872685380951	-2.6491651004126977
O	5.099720562333333	7.1073418753809525	-4.9244399204126985
O	3.0223525423333326	5.386351165380952	-2.2849578904126977
O	1.040217952333333	8.709409545380952	-1.7418019604126982
O	0.1693937123333331	9.141754945380953	-5.331855930412698
O	-0.9473040206666669	5.527280595380953	-5.524146240412699
O	-3.246645647666667	6.148213645380952	-2.5552784604126977
O	-4.703562727666667	9.151275775380952	-4.179932030412698
O	-5.564802767666667	6.967954915380952	-7.213045820412698
O	-7.305698017666667	4.4813361253809525	-4.902644700412698
O	-9.147048057666666	7.235487655380952	-3.040815790412698
O	-10.371847917666667	8.607834945380953	-6.418165850412699
O	-11.159629217666668	5.3474509353809525	-8.2274409704127
O	-11.250916727666667	2.376626825380953	-5.804350360412698
O	-13.978542077666667	3.469881975380953	-3.468463330412698
O	-12.748361677666667	0.17040189638095254	0.998701493587302
O	-11.387404567666668	2.9231476053809526	3.235523599587302
O	-8.130981227666666	3.7589572953809522	4.916764669587302
O	-7.686840417666667	3.2521206653809527	8.679335669587301
O	-3.5233041976666666	6.5522118653809525	8.369660779587301
O	-1.8867307536666669	11.537257285380953	5.0673681995873014
