89

O	-3.775813765784314	-4.032241506078431	-2.6517064300784305
O	-3.421678645784314	-4.9261791360784315	-1.7197172450784306
O	-3.653896165784314	-4.476490226078431	-0.33538380707843063
O	-2.713778998784314	-3.428359586078431	-0.0848360240784306
O	-2.588333029784314	-2.738558726078431	-1.4098140550784306
O	-3.4897991957843137	-2.645213616078431	-2.468482220078431
O	-2.598728527784314	-2.277750896078431	0.5639061499215694
O	-1.583387456784314	-1.6404595560784312	-0.2648126640784306
O	-2.485465790784314	-1.282029866078431	-1.2237677270784306
O	-0.715562255784314	-0.6214815860784311	0.12454739992156938
O	-0.6648212557843141	0.6081991322215689	-0.4083806650784306
O	-1.2800826357843138	0.6268057049215688	-1.6288954620784306
O	-2.206076219784314	-0.24564125207843113	-2.0444940690784303
O	-2.683013008784314	-2.281009326078431	-3.4573362200784308
O	-2.590115428784314	-0.2436319300784311	-3.3412294500784308
O	0.11282426421568603	1.6586260739215688	-0.10604021707843059
O	-0.5926223057843139	-0.5452323060784312	1.5940768599215696
O	-1.7159294687843138	0.10939492092156888	2.1172677199215695
O	-1.316840273784314	-3.549731376078431	-1.6690863810784307
O	-0.614373145784314	-1.727526106078431	1.8986552799215695
O	-4.709146375784314	-4.068800226078431	-3.7579109100784303
O	-4.203574845784314	-6.048538376078431	-2.062901968078431
O	-6.170269555784314	-3.728297386078431	-3.6272979800784304
O	-4.341232735784314	-3.5131438860784314	-4.868256950078431
O	1.140174064215686	2.258808313921569	0.5221515099215694
O	-2.274496197784314	0.8210758589215689	1.0530922799215692
O	-2.253499028784314	2.237997643921569	1.4350158599215692
O	-2.585989471784314	3.144598083921569	0.4937192099215695
O	-3.081170965784314	4.2934678739215695	0.9538122599215695
O	-2.828443625784314	4.6525643439215685	2.2860931999215692
O	-1.725079703884314	4.081785403921569	2.786156339921569
O	-1.458724061784314	2.785792333921569	2.362768789921569
O	-1.060387717784314	4.697569113921569	3.7976016199215694
O	0.277776884215686	4.255112963921569	3.73533287992157
O	0.32280116421568583	2.878960533921569	3.792410519921569
O	-0.583830555784314	2.064885033921569	3.1083056399215696
O	-2.377555893784314	3.231947263921569	-0.9449858100784306
O	-3.715196895784314	2.6809068739215687	-1.2227297960784307
O	11.728849854215685	-5.251303646078431	4.80837534992157
O	3.268253174215686	-0.899590616078431	-9.23824504007843
O	1.181008454215686	2.842147223921569	-13.223791830078431
O	0.881453424215686	-2.232907306078431	-13.66462143007843
O	-1.5203625447843139	-1.861397856078431	-10.70540208007843
O	-0.5551729257843139	-6.644385366078431	-9.34378665007843
O	-4.190649535784314	-6.376247086078431	-8.427463110078431
O	-4.346302795784314	-9.98336762607843	-8.825183610078431
O	-1.368392779784314	-11.084863826078433	-6.78953723007843
O	-7.543110835784314	6.393241503921569	-6.754978780078431
O	-10.581102125784314	4.895870643921569	-4.90477078007843
O	-9.289264175784314	1.259874107921569	-5.195617050078431
O	-6.129187435784314	2.178903943921569	-3.70432899007843
O	-8.108416905784313	4.062469713921569	-0.8833951760784307
O	-10.180059045784315	0.9809259889215689	-0.2176226310784306
O	-6.9494477357843145	-1.130375946078431	-0.21821666107843063
O	-5.450368785784314	0.8176146569215689	2.3297101899215695
O	-8.249902435784314	0.22722244392156887	4.70233853992157
O	-7.903347355784314	-3.349847436078431	4.85027942992157
O	-4.281560105784314	-3.3726111160784313	5.530591949921569
O	-4.870033055784314	-0.3508379350784311	8.15982488992157
O	-7.354814095784314	-2.306992496078431	10.11323276992157
O	-5.048143595784314	-5.324067536078431	10.146512869921569
O	-2.2959241767843137	-3.077597216078431	11.592342169921569
O	-4.691864885784314	-1.627700726078431	14.18322756992157
O	-5.241121565784314	-5.281357406078431	15.35747976992157
O	-1.979406936784314	5.856711203921569	13.41496066992157
O	1.2193309342156862	2.791857693921569	11.83627596992157
O	3.368044444215686	5.620012813921569	10.29120206992157
O	5.683164564215685	2.0720152439215687	7.69322555992157
O	8.862335754215685	-0.43003597607843114	4.37731923992157
O	9.760955654215685	2.8103544939215688	2.499043109921569
O	8.331364354215685	3.8831645139215687	-2.9431403900784305
O	6.643829544215686	1.5791754739215689	-0.3982079380784306
O	6.319003894215685	-2.195030576078431	0.1154282699215694
O	2.6600237242156854	-3.446410116078431	0.037963409921569324
O	0.8556143642156859	-6.593869056078431	0.7005276599215693
O	3.4020443442156862	-8.252736336078431	3.16611131992157
O	6.3212700442156855	-7.037463436078431	1.1049203799215694
O	5.179379864215686	-8.687617116078432	-2.107592600078431
O	4.480327414215686	-5.469066766078432	-3.9769655700784305
O	6.340758684215686	-2.162498396078431	-4.264611180078431
O	4.509390504215686	0.9792783109215688	-5.192605780078431
O	6.403496614215685	3.872711013921569	-6.4376574200784304
O	6.189077864215686	7.2593875339215685	-4.74254240007843
O	2.648704134215686	6.633727173921569	-9.01632048007843
O	1.025170004215686	7.802309073921569	-5.77798888007843
O	-3.341711925784314	10.31680676392157	-8.35482860007843
O	1.497731394215686	9.67346773392157	0.8685951999215693
O	5.0229647442156855	10.102374393921568	5.01885935992157
O	7.686120014215685	9.51855525392157	2.4110745699215697
