28

O	11.124676077533788	39.058731095612046	23.547015101700502
O	11.706753027488444	39.1333995859069	22.18288434599802
O	12.003186791174874	40.63099721834804	22.06410530510447
O	10.727670189419465	41.074004961635886	22.251683270658276
O	10.619676513124384	42.387416419493576	21.829661595836626
O	9.71108554738887	43.107575790159494	22.787313406318262
O	12.207583311421851	40.90810026658213	20.63575973365893
O	12.829879066055016	40.04071952350562	20.026829165183177
O	11.40255180157099	41.662801938103236	19.820782494538157
O	11.548778590650514	37.986773343829995	24.256899304444538
O	11.040992627470738	37.769048251729934	25.493847139858747
O	10.619313153068271	38.767499586559424	26.26153929912412
O	10.168453746849194	39.82719303132521	25.482650193889597
O	10.955685296652748	40.11276756629294	24.40192866086211
O	10.867490021995836	38.87751179697781	27.55849566448598
O	11.423015462302093	38.51423281923668	28.74930744009824
O	12.892559380640403	38.084315240329744	28.723173776543067
O	13.113832575448471	38.52516613729346	27.34223314063734
O	13.842447142451256	37.97499305480057	26.28380325079879
O	13.982918607518096	39.028915002051235	25.20056083630624
O	14.497997713608015	40.0801292928639	26.01055575288968
O	13.114638703827577	40.4244421763978	25.88773479408837
O	12.723126898848063	39.93390649652958	27.22720730800735
O	15.34004098253816	40.178017698240495	27.34644740642704
O	16.671052989879513	40.70594178368582	28.086286939101775
O	17.316342494246356	41.2595868161318	28.289347528925813
O	17.86012299612275	41.215627259211644	25.95475221789341
O	15.710006478498448	42.21079986737851	25.968782658900935
