29

O	22.812290424506724	38.62791422923612	31.271842251103575
O	16.013049747011696	37.783292815302666	30.869622952740155
O	16.777409359352124	38.903224304860736	30.9171021787491
O	15.810894722799512	39.91142612375867	31.91990015872073
O	14.733720843258682	38.06717678678366	30.998779689238226
O	14.445275749357856	38.844909611113415	32.11873666924265
O	11.445395041979149	39.54960187887404	22.287848177973917
O	11.76531682525936	38.34729528393627	25.87891640801765
O	11.079328391827463	39.01699155990183	24.808194810665626
O	18.18670600360426	38.624927431268155	30.998734384649286
O	11.34794866614778	38.23027120839703	27.191355360265778
O	11.51110106940835	39.900378687541604	23.735131238636548
O	12.132615433835308	37.69075259645921	28.21218309190874
O	12.314726278511003	39.963924250342096	21.50387546306609
O	12.896913105236658	37.57660524415863	25.60555226900697
O	19.077497345162374	38.34111563537198	30.02019014415087
O	18.819142870222066	39.2975028635414	31.96738739427782
O	13.701919374848012	37.30521624773146	30.281695902957612
O	13.295720384883262	37.04270596798525	27.946013195988353
O	14.166601033566565	37.00433949288518	28.99925062420332
O	10.284737553223346	39.56071437576029	21.489618833496607
O	21.088193018447523	38.62867807341274	31.389673675797283
O	13.647817754660549	37.05281913385204	26.652243258919917
O	20.47211899451485	38.265559907764114	30.22204770449109
O	20.19004234227487	39.430735027698034	32.01463334992981
O	11.052183388682312	41.19690691749846	23.651844262558896
O	10.413246080155275	39.05409535364194	27.952411319748396
O	9.808928389284977	41.1170228469169	23.056265667846343
O	9.149515660523313	39.98624018969373	23.858040934031532
