28

O	1.5930002965245627	29.421281560599216	19.480335295399296
O	2.904718868921991	30.83747484909498	19.485127305587785
O	2.1221890362566973	30.419984015258496	20.39852576181468
O	0.5988680123937073	26.516752536031987	21.813021938967648
O	3.115758997950465	29.957032004362333	18.50210905377257
O	2.5530029070718006	28.868377447035794	18.795111805840765
O	0.9932914699177653	30.018077896170055	21.311519606302397
O	0.672402676945342	28.783448839940167	21.73677117914913
O	0.017753233659397516	27.558064910010202	21.458286282938072
O	-0.5607078789053874	27.437269387676583	20.229904156355406
O	2.3685555096674893	27.43896217517198	18.77232094942626
O	3.075001581931332	27.15987595821135	17.524947722395638
O	4.083429189491136	28.207453899019633	17.160877446688687
O	3.6919167697369693	29.687258812585757	17.13399599533653
O	2.988691194523267	27.03173198827781	20.01967206545455
O	3.2350041141910926	27.999217058079203	20.91646101581387
O	4.394725766576548	28.526760095421825	21.20649876419516
O	4.80412650106803	29.77967774357981	21.78475182600513
O	5.361767381233016	30.37578087656613	20.585202887825005
O	5.63144723399218	29.49827716841555	22.960372408007075
O	4.042360457129542	30.832908618417385	22.469060656632788
O	5.248378326331684	27.974206109087824	20.25978645356248
O	6.547688777337388	28.56598756989949	20.1757595278164
O	7.413517590803861	27.863187660355152	19.316628960672976
O	5.770930028796255	29.594958180075896	19.496521030054485
O	7.182553639239489	28.703795454024124	21.446374810461574
O	5.224046966042504	26.62359689845433	20.285766030520946
O	3.98042392140899	26.192776903750815	19.829703853850926
