98

O	1.9810175286060614	0.03169964753636334	-3.4083469442575764
O	1.8791506186060614	1.4706593285363634	-3.4743991342575766
O	1.6353582286060613	2.344431333536363	-2.2943222042575764
O	1.951987928606061	-4.4720882464636365	1.8478769257424235
O	1.4665931686060611	1.6385349405363634	-1.2533545802575765
O	2.3660200886060614	0.49479088053636333	-1.2365164732575766
O	3.1631302486060613	0.11385688653636339	-2.414055144257577
O	0.2281064676060613	1.8053027335363634	-0.49507866115757665
O	-0.2893294994939387	0.40812719153636334	-0.7063731962575767
O	0.6993015066060613	-0.3658154664636366	-0.051929837257576605
O	1.857422738606061	-0.6360749464636366	-0.8925063142575766
O	0.6680374786060612	-1.7795470664636368	0.08446215474242336
O	1.3266334886060611	-2.3093121664636365	1.3825072257424234
O	2.5975410686060614	-2.3457797564636365	0.8841952457424234
O	2.8206705286060614	-1.3724485664636368	-0.054686180257576655
O	1.2385083686060612	-2.6685599264636366	-0.9588945582575766
O	1.924209328606061	-3.887924626463637	-0.3399039152575766
O	1.2454787486060612	-3.811326656463637	1.0285994957424234
O	2.9314190086060616	-0.4265577364636366	1.1675069057424234
O	0.2297813376060613	-1.9890920864636366	2.1781934157424234
O	3.6913783686060615	0.5294779255363633	0.6004177757424234
O	3.4878174286060615	1.7215328625363635	1.0774717757424235
O	2.5087804686060613	2.1102502135363634	1.9432815457424235
O	1.7057919186060613	1.0697347499363634	2.2793211457424234
O	2.1992719286060614	-0.19002859646363657	2.254265225742423
O	2.8282902486060615	3.4290393035363635	2.3599862957424236
O	2.6975957986060615	4.419680403536363	1.2598175257424233
O	2.1791822686060613	3.8577520335363635	3.5504428857424237
O	-0.9273050803939387	-3.490874606463637	-0.2704191192575766
O	2.5846591786060613	2.094185523536363	-4.273140934257577
O	-0.11061383399393873	-3.8291013364636366	0.6057815257424233
O	-1.2101137013939387	-2.5082035064636368	-1.3962283862575766
O	3.8023234486060615	6.820504793536363	11.806559385742425
O	2.9234332686060616	10.078146453536363	7.431825865742423
O	-0.5663369643939387	10.637510483536364	8.974291165742425
O	-0.8883829423939387	14.997468563536362	5.940031105742423
O	-1.9403732313939388	12.541213563536363	3.2326994957424233
O	2.9088765186060614	7.388753913536364	-12.295524414257578
O	6.557718628606062	-3.0268307664636365	-8.502160994257576
O	5.919599528606062	-6.172060126463636	-6.370669834257576
O	9.53409927860606	-6.140785026463636	-5.058328734257577
O	9.26550549860606	-2.3914345764636367	-4.306730054257576
O	6.154279418606062	-2.9503352564636365	-2.3272506242575766
O	7.956923198606062	-5.357437056463636	-0.005442870257576615
O	10.52876473860606	-2.8498576464636365	1.2010700657424234
O	7.650252358606061	-0.5435226564636366	2.2125352357424233
O	5.743179278606061	-3.3964019564636367	3.783081225742423
O	8.59550224860606	-4.342668836463636	6.055408955742424
O	9.173920358606061	-0.6785386764636367	7.0111310957424235
O	5.466727078606062	-0.42327185646363663	7.920318745742423
O	5.628682138606061	-3.697155996463637	9.892810085742422
O	8.40281522860606	-2.009243516463637	11.958994685742422
O	6.223300238606061	1.0899347241363633	12.490189385742422
O	3.1742489786060615	-0.9804689964636366	13.517797985742423
O	-0.043119769393938745	-6.4625901164636375	10.961727985742424
O	-1.4203943913939387	-6.609091306463636	7.401477595742423
O	-4.934230261393939	-5.718712486463637	8.559764875742424
O	-3.3171471013939384	-2.5308840064636366	9.970048285742422
O	-1.2071864713939389	-1.8879950764636368	6.911193835742424
O	-4.3974591913939385	-1.9276186364636367	4.724546685742423
O	-6.300468151393939	0.23304514453636338	7.138116185742423
O	-3.6090813013939385	2.913360013536363	6.997402495742423
O	-3.1029489713939387	2.5711231035363635	3.3485983057424233
O	-6.661310511393938	3.6722631435363633	2.7630664957424234
O	-5.503956121393939	7.004701763536364	4.301865955742423
O	-3.2005955913939386	7.456041473536363	1.2665820457424233
O	-5.720526221393938	6.278770753536364	-1.3237582012575766
O	-2.3869600113939384	5.870040443536363	-4.054269174257577
O	0.4289506416060613	7.993442723536363	-2.5469821242575765
O	3.906277128606061	6.343928153536364	-2.537685194257577
O	7.462727808606061	7.124104963536363	-1.1608342962575766
O	6.352184578606061	9.149221083536363	1.7790761557424233
O	3.7503728286060616	10.944973383536363	-0.3193008552575766
O	6.142696588606062	12.104128163536362	-3.0548041242575765
O	4.582645268606061	9.995362193536362	-5.776740384257576
O	0.9810931986060611	9.175953813536363	-6.808248674257577
O	0.28155955260606125	5.907979923536363	-8.701104464257575
O	-5.350969611393938	2.7411888935363633	-9.760133474257575
O	-1.8104601213939389	1.6848139805363633	-13.926292614257576
O	-1.8990876613939387	-0.9636000964636366	-11.218300514257578
O	-4.925189901393939	-2.5469391864636366	-12.747020714257577
O	-3.0154363313939387	-2.6580594864636367	-16.105036814257577
O	-0.04483631439393873	-8.794844356463637	-10.291155864257576
O	-2.8240370713939384	-6.556741896463636	-11.606251914257577
O	-3.3467077213939387	-7.222520846463636	-6.041807374257576
O	-4.326963591393938	-3.5672302164636362	-5.328536524257577
O	-7.884440221393938	-3.3448175264636366	-6.635686534257577
O	-7.8091793113939385	-2.4441525264636366	-1.3450795062575767
O	-8.96549832139394	0.5160434915363633	-3.4319799642575766
O	-12.49209036139394	-0.9508779864636367	-3.2141025342575764
O	-12.20270436139394	-1.1331104064636368	0.6058081157424233
O	-10.46474626139394	2.2578130335363635	0.8801826057424234
O	-8.74123806139394	-8.422367646463638	2.1179533257424232
O	-5.774616861393938	-10.202539936463637	3.7808074657424235
O	-3.8049420113939387	-11.089704736463638	-0.8016527952575766
O	-2.4895139313939385	-14.359583336463636	0.7320122657424233
O	0.8797680486060613	-14.757444836463637	-2.9369410142575765
O	2.9947081586060613	-16.38039253646364	-7.129161994257577
