107

O	-2.2941188542937505	-2.6817186771140618	3.071791422890625
O	-2.8800215342937503	-3.703082797114062	2.4699293628906247
O	-3.2395376242937504	-3.346904837114062	1.2829002428906249
O	-2.8440346842937503	-1.6179604271140622	2.486723112890625
O	1.6665470957062496	0.9656359978859379	0.2613072888906248
O	-2.2882942542937506	1.942770642885938	1.3826457328906248
O	-3.2278484042937503	-2.0865613871140622	1.269636212890625
O	5.043014705706249	1.777192012885938	-0.24145232310937514
O	-0.2890107982937504	-1.1975347671140621	0.7287163128906249
O	-3.73578033429375	-1.2801083171140621	0.11638994289062488
O	5.474615265706249	0.2033184818859379	1.2385066028906249
O	-2.7609998042937502	-5.099834407114062	2.795583852890625
O	-3.20818858429375	-6.068640117114063	1.9035925128906248
O	-2.5639222642937503	-7.3132756871140625	1.8062542628906249
O	-1.1647358712937503	-7.170541167114062	2.177135352890625
O	-1.2699103052937504	-6.777418467114062	3.4734790028906244
O	-1.9907151942937502	-5.624142997114062	3.7694610428906246
O	2.77920625570625	1.8385959228859379	0.4126638128906248
O	3.95126070570625	2.5059853028859376	0.42064720289062474
O	2.6332086957062497	2.8538974528859375	-0.7859113511093752
O	1.3751077857062497	3.377427382885938	-0.20701593510937516
O	0.9128532257062495	3.560987692885938	1.0591776128906247
O	0.4372401757062495	2.5493862128859375	-0.8381592921093752
O	-0.3508253342937504	3.1941094828859375	1.5596432528906248
O	-0.8524900752937504	2.248353052885938	-0.5028737761093751
O	-1.2136013412937503	2.505985952885938	0.7786836028906248
O	2.4806013357062495	-0.3207992341140621	-0.20107266910937516
O	1.7348537057062496	-1.4891218371140622	-0.5550281128093751
O	2.3198478457062497	-2.154061407114062	-1.6389120171093752
O	3.7057285157062494	-2.4366225171140625	-1.682989857109375
O	4.42383712570625	-1.302377057114062	-1.428139827109375
O	3.5698937857062494	-0.2502713381140621	-1.0847960361093751
O	-0.2308630272937504	-3.145791777114062	0.0758438758906248
O	-0.9071637172937503	-3.8176478071140627	-0.8888855181093751
O	-1.5132335072937504	-5.098997457114062	-0.8281191241093752
O	-0.6720455376937504	-5.9741302171140624	-0.3060385521093752
O	-0.07783882629375038	-5.432098307114062	0.7758440728906248
O	-0.18275552029375042	-4.133609657114063	1.006428882890625
O	0.5534078057062496	-1.9142136471140623	0.08461299989062487
O	-2.7565216542937505	0.6422209118859379	1.3868405528906247
O	-2.80897263429375	-0.14170817311406209	2.651151602890625
O	5.898155155706249	0.7601939638859379	0.2524427048906248
O	7.00377575570625	0.3684418475859379	-0.4933996761093752
O	-6.60253973429375	-13.250510727114062	2.329848542890625
O	-6.947301124293751	-13.010467527114063	7.464892122890625
O	-3.1464539442937505	-13.365964627114062	7.0958632328906255
O	0.8316629357062496	-9.137495787114062	-5.064136547109376
O	4.407150375706249	-8.976196477114062	-3.579722677109375
O	3.53571340570625	-10.080084127114063	-0.015636305109375193
O	1.3144267957062494	-7.812844327114062	-0.10624485810937512
O	3.9212936157062495	-5.294918017114062	-1.265903914109375
O	5.9051865557062495	-6.0741475471140625	1.6562084228906246
O	3.24512795570625	-5.754558377114062	4.252972732890624
O	2.3374544057062496	-2.168381537114062	3.4580543528906245
O	5.803821395706249	-1.286447977114062	4.000131862890624
O	5.709534005706249	-2.107394777114062	7.5555633528906245
O	2.5859486857062497	0.1224785548859379	7.979748842890626
O	4.144391735706249	2.851685922885938	5.854714312890625
O	7.2432952957062495	3.003256762885938	7.996597562890626
O	5.129574965706249	2.9768027928859375	11.152184132890625
O	3.07943375570625	5.869981552885938	9.720183132890625
O	6.275177895706249	7.730955942885938	8.732453332890625
O	7.31540358570625	7.5116199928859375	12.456089732890625
O	3.8969836457062494	8.837698412885938	13.551457932890624
O	3.7140979257062496	10.157848932885937	1.7126320928906247
O	0.16154633570624954	9.027186652885938	4.495647582890625
O	-2.29125655429375	9.279525502885937	1.6078931028906247
O	-5.349160384293751	6.814884812885937	4.496009632890624
O	-8.43655863429375	8.483407892885937	2.989214492890625
O	-9.747231254293752	4.745674442885938	6.506936402890625
O	-9.771911354293751	0.29027449418593787	3.041516192890625
O	-9.291332904293752	-0.5227012681140621	6.716962212890625
O	-5.99477186429375	-2.394389997114062	7.418590732890625
O	-4.20329845429375	-3.5808605071140622	10.555217132890625
O	-8.96293212429375	-1.254930827114062	11.612501632890625
O	-9.323196784293751	-5.874312697114062	8.450768192890624
O	-9.43729522429375	-4.966378447114062	1.977917992890625
O	-6.605929424293751	-4.6253588971140625	-4.965251707109376
O	-7.621001474293751	-3.7752813371140626	-8.537110447109375
O	-7.409953054293751	-7.577520147114062	-9.260978067109376
O	-3.6613589242937503	-7.746505247114062	-8.538456787109375
O	-1.3331482512937503	-8.313796087114062	-11.463076767109374
O	0.7064819257062497	-3.954032117114062	-8.427540777109375
O	-2.9923337742937504	-3.595079917114062	-9.213811837109375
O	-2.4862689442937502	0.07495146988593787	-10.159389257109375
O	-1.1477287292937504	1.265353408885938	-6.8171671971093755
O	-4.510650524293751	1.9704502028859379	-4.960724867109375
O	-6.8963482142937504	3.003306612885938	-7.381577307109374
O	-5.727693944293751	6.734121052885937	-7.642933107109375
O	-5.838845774293751	6.920727302885938	-3.7716947571093753
O	-9.43680413429375	5.602096232885938	-3.6762898471093752
O	-10.26799592429375	8.134454792885938	-6.390978647109375
O	-8.689318904293751	10.945757372885938	-4.272202497109375
O	-10.16814891429375	9.622121282885937	-0.9934655721093753
O	-0.7217737774937504	10.917544472885938	-6.191716077109374
O	2.8106077057062495	10.581365672885937	-4.770816487109375
O	3.1691048157062496	5.913762592885938	-6.568686737109376
O	6.83222884570625	6.760533442885937	-7.0205809771093755
O	7.953728465706249	2.012706662885938	-7.508712637109376
O	9.11835142570625	-2.289484427114062	-9.713885437109374
O	12.70317639570625	-1.3701655771140622	-8.867157337109374
O	10.39671559570625	-6.577893837114062	-10.223661997109375
O	11.91154379570625	-8.013385387114063	-3.256102097109375
O	13.31466929570625	-4.825739567114062	-1.8218599571093752
O	12.016623995706249	-1.6696317371140623	-0.24143533110937515
O	12.33802099570625	-0.990894757114062	3.4988980128906246
O	11.19206449570625	4.075219372885938	2.3512398028906247
