42

O	4.949876077714289	18.63007972532556	10.813875467666753
O	5.254957545967529	17.832318444517412	12.042825737658772
O	6.2955923857560725	17.0783658111007	11.88351252713495
O	5.447162915873164	18.53816657665721	13.331353625868818
O	6.388444040725377	19.52421438799684	13.227985827460133
O	6.46744110261393	20.292651666170855	14.450816793767382
O	5.378912167767515	20.080464227955297	15.4638680939727
O	5.085843864470025	18.823664580703312	15.577440688698616
O	4.629497471036329	18.327818538812057	14.300864359851007
O	5.104805491458927	21.35720946711588	15.858895976072796
O	5.728736734259921	22.154903236646586	14.99769292069156
O	6.112282816770685	21.574109323438616	13.812746527938518
O	7.121742833030853	22.232975121856654	13.08307419722015
O	6.90575981683116	23.621296281578175	13.179804020048506
O	6.453632068280966	24.19353665036503	14.418388066816057
O	6.27054215327672	23.303178435786936	15.36497712382103
O	7.59415620452989	20.071580671807922	15.202005819446892
O	7.512827547704819	19.65379302229624	12.759266065458254
O	4.105595729138386	17.026094901210943	14.325218976661311
O	7.728042819543626	21.658705002915234	11.987524608311022
O	7.232132124176102	25.33789112327597	14.770413488534961
O	6.611569532801156	26.622344883910625	14.769955967387615
O	7.049057717231983	22.974138981199605	16.626214415487084
O	7.02319612381433	22.000270570758403	17.378352597024833
O	8.032400207903112	23.817487601192866	16.66252756951619
O	7.645024890231521	24.860455524616114	17.486601131478036
O	6.176889202634392	25.034486498823366	17.64959463354961
O	5.657676436164342	26.242648835181797	17.922165203187877
O	4.2781643044796365	26.1584207105358	18.13875918062098
O	3.959900142944302	25.110749194924168	19.046574393376197
O	4.618635567695528	23.92721727792661	18.955486114637004
O	5.479583023043437	23.900993520251145	17.937839610836104
O	3.743318436838499	27.386418568664666	18.63658465749264
O	4.3727001421120235	28.574844617012488	18.394631037925286
O	5.465997835181213	28.46538354107843	17.533146773442333
O	6.319367033538185	27.39648101742134	17.8743716352866
O	4.664869036036003	22.717930359178677	19.782682071251642
O	3.3418737565285244	22.744605017479124	20.43527957322536
O	2.331693799819643	23.487873186319668	19.617292964327678
O	1.5856358374911403	24.392341571667714	20.45659332077271
O	1.251756152772323	23.86074765980374	21.520068154380887
O	0.8873871771371471	25.448078738017895	19.99512598901873
