93

O	-1.5645147313636363	-3.0926035583454543	1.0543068975036363
O	-1.6131376103636366	-1.707021748345454	-0.9529256714963635
O	1.6612769446363636	-2.6987242283454544	-0.5006546257963636
O	-0.8108484655636364	-1.777405178345454	-2.0075629124963634
O	-3.191258285363636	-2.6358119783454543	0.4001619955036364
O	-2.1292477753636367	-2.8053306983454545	-0.18303159649636358
O	-3.4833407953636364	-3.856272468345454	3.2262964475036364
O	-1.3550423033636365	-0.6431016283454543	-0.08141368049636355
O	-2.0413677153636365	-5.363153908345454	3.2885456075036363
O	-0.04863058036363643	-0.6471547783454541	-2.2358843624963636
O	0.6179449746363637	0.07850300565454582	-1.3181765914963637
O	1.9569545546363638	0.2995800466545458	-0.9807151104963635
O	-0.37715866236363643	0.2769786126545458	-0.3629558370963636
O	1.8108024646363636	0.01998964265454578	0.3618884745036365
O	3.093891504636364	0.0182989756545458	-0.14805591549636354
O	3.5667132746363635	0.6919812006545458	1.1562085775036364
O	-0.37697400436363643	-3.666259418345454	1.1411063975036364
O	0.37192866463636354	-2.362059268345454	1.4064995575036363
O	1.6003402546363634	-2.5356063983454544	0.8536507375036365
O	0.020144044636363545	-1.922970098345454	2.701751657503636
O	2.4891150946363636	-2.3823861583454544	1.9296749475036363
O	2.0508845346363636	-2.3134475683454543	3.2297739775036365
O	0.8084430946363637	-2.6110056383454543	3.6838748875036367
O	-0.0010754993636363785	-3.8913298183454548	4.140505887503637
O	4.316868704636363	-0.9573272183454542	-3.9807998424963635
O	2.828958924636364	-1.059004968345454	-3.8117144224963635
O	-1.3517170543636365	-3.339374548345454	4.411208367503637
O	-1.1600208733636364	-2.8691943883454543	5.788371647503637
O	-2.3957356753636363	-4.091231378345454	3.789061707503636
O	0.12922613463636368	-3.2646113683454545	6.527984997503637
O	2.307940404636364	-2.129620148345454	-2.9989984824963636
O	2.3237823246363636	-2.6580690783454544	-1.6769002024963635
O	2.746810334636364	2.256460171654546	-0.25449810249636357
O	1.4747899146363637	0.7922411986545458	1.5254456975036366
O	1.6303867746363634	2.0483672816545457	0.6917276075036364
O	3.7789087846363634	2.1143635516545456	0.7614718175036365
O	2.8015765646363633	1.3407372286545458	-1.4818590824963636
O	2.6680080646363633	0.9025339696545458	2.3875678275036365
O	-13.264531895363636	-5.979499608345454	0.24688760750363647
O	-12.198126595363636	-2.3238911283454544	-0.25598820049636356
O	-15.495618495363635	3.1680029116545456	0.2916241295036365
O	-12.079986195363636	4.619153131654546	-0.5069223321963635
O	2.7957178446363633	8.567231791654546	7.349671927503636
O	6.281109804636364	5.653568821654546	9.755960827503635
O	2.2082740046363636	3.722208181654546	12.186657327503635
O	4.354340954636363	0.5964863156545458	11.878382627503635
O	2.6145224046363635	-0.40611318734545415	15.116127227503636
O	-1.0025132293636365	0.013056979654545775	14.000543227503636
O	13.424330804636364	1.814080551654546	1.9660096775036364
O	13.858866104636364	-2.0610366483454543	2.2992861175036365
O	11.150068004636363	-2.4235837983454545	5.063972807503637
O	8.842543864636363	-0.6196921983454542	2.902426947503636
O	9.752995904636364	-2.937704308345454	-0.23421374149636356
O	9.159124304636364	-6.076527478345454	1.8625995875036363
O	5.826081644636363	-4.755802398345454	3.146626907503636
O	4.725190524636363	-4.542813778345454	-0.20564836049636356
O	5.0574796746363635	-7.966266028345454	-1.2652156464963635
O	2.6082294846363636	-9.118381358345454	1.2278032775036363
O	-0.22822886236363638	-6.942801408345454	0.010362608503636461
O	0.7596530646363635	-7.571835018345454	-3.622471462496364
O	0.3088077346363636	-11.294772428345455	-3.1686115324963637
O	-2.9976762453636363	-10.737040428345455	-1.3197553264963635
O	-4.180130365363636	-8.566332938345456	-4.275970572496363
O	-3.0075005153636365	-11.183035528345455	-6.750754292496363
O	-5.320441615363636	-13.673247728345455	-4.9080987824963636
O	-8.238397705363637	-11.206068628345454	-5.028747522496364
O	-0.011616249363636366	-5.970351468345454	-11.980047672496363
O	-3.1968891353636364	-3.9450437183454548	-9.166760022496364
O	-2.1663925953636367	-0.45117373334545424	-10.371415482496364
O	-4.757851665363637	1.2068818726545458	-6.459825952496363
O	-5.655203725363637	4.487664981654546	-8.301730912496364
O	-9.035892935363636	4.077883311654546	-6.458594962496363
O	-7.175762845363637	4.630379681654546	-3.1445834324963635
O	-5.020961265363637	7.565148061654546	-4.457976352496363
O	-2.5474663453636364	6.868987461654546	-0.8896879664963635
O	-4.716719755363637	4.868173951654546	1.5674366075036361
O	-3.066081745363636	1.6927462416545458	3.1566347275036364
O	-4.010495145363636	-1.041368718345454	5.424544517503636
O	-7.445142655363637	-1.4789898783454543	4.351578267503637
O	-7.8489496353636365	2.3219956716545456	4.471924797503637
O	-6.530429965363637	2.7987575716545456	8.046142487503635
O	-3.399662295363637	4.710897241654546	7.081272587503637
O	-2.5387562453636363	7.427618371654546	4.521870777503636
O	1.0103449946363636	7.877982421654546	3.1607865575036365
O	3.4404184046363637	10.985218971654545	-2.1221550324963636
O	7.557216914636363	10.732162671654546	1.7676663375036363
O	7.874524134636363	8.142318621654546	-0.9868632904963636
O	13.431954304636363	7.2922477216545465	-0.33634297349636355
O	5.539547984636363	5.047280221654546	-6.964789452496364
O	1.4779522046363638	5.301349401654546	-10.452567872496363
O	0.4587528946363635	8.575864521654545	-8.792205612496364
O	-3.801293445363636	7.621376251654546	-10.910410572496364
O	16.420671404636366	-9.113350368345454	0.4835548375036365
