90

O	-8.01494893559672	0.2990437093868854	-5.998843793686885
O	-3.2758648955967207	-0.7936847606131145	-1.1561310786868848
O	-4.140429575596721	0.2336504493868854	-1.3506991016868848
O	-4.593668255596721	0.5854991593868855	0.27010391631311514
O	-2.674346305596721	-0.7027002006131147	0.011709326313115165
O	-3.554320445596721	-0.5554929106131143	1.0823857863131152
O	5.142524414403279	4.373138879386886	-1.4107492156868848
O	2.746769464403279	1.6772593494868855	-0.21231110368688477
O	3.723694574403279	2.7097779693868853	-8.339368688470294e-05
O	-4.975419885596721	0.06041304938688552	-2.5095821776868847
O	2.095592354403279	0.9349759693868854	0.7548344763131152
O	3.9467425444032784	4.019677959386886	-0.5939499706868848
O	1.052044034403279	0.04823691938688546	0.48359235631311503
O	5.039624604403278	5.1693599693868855	-2.3580911016868846
O	2.4966951644032793	1.2112410073868856	-1.5043989412868848
O	-4.726473815596721	0.3314083793868854	-3.8119625236868844
O	-6.278311715596721	0.25670171938688546	-2.2759876726868846
O	-1.278495048596721	-1.1254251006131146	0.1914597563131153
O	0.737922884403279	-0.31028610061311457	-0.7877900096868848
O	-0.543371930596721	-0.7624936806131144	-0.9394675376868847
O	6.426959264403279	4.660792399386885	-0.9088508706868847
O	-7.040816135596721	0.11031055938688539	-4.583979213686884
O	1.450193434403279	0.32381151938688557	-1.7303961606868847
O	-5.704350125596721	0.28060484938688557	-4.828132593686885
O	-7.197509705596721	0.45991401938688536	-3.2825303536868846
O	3.871031594403279	5.167660559386885	0.16429234631311518
O	1.8563191044032792	1.2380850043868854	2.162824016313115
O	5.089564114403279	5.274849789386885	0.8049695563131152
O	5.281464104403279	3.8538706493868853	1.3529940263131153
O	-13.581318765596722	1.8100036543868856	-0.9634324356868847
O	-12.819158165596722	-1.0201164306131147	-5.354790243686884
O	-12.25368786559672	2.7914062193868854	-5.480571813686884
O	-13.166647765596721	7.842469269386886	-2.435070483686885
O	-16.62581906559672	7.3655458193868855	-0.8987152486868848
O	-8.964812755596721	7.390626509386886	6.7045843663131155
O	-5.187855555596721	7.7605632793868855	6.891809596313115
O	-7.3271420155967215	8.128363599386885	1.8702377263131151
O	-5.057291545596721	5.118640259386885	2.522912936313115
O	-1.977185662596721	7.140544309386885	1.8408631063131151
O	-3.4522911055967214	8.458770249386886	-1.4077944796868849
O	-4.012882625596721	4.965953649386885	-2.478128568686885
O	-0.6342069665967209	4.003755529386885	-1.6200030377868848
O	0.674975064403279	6.742978699386885	-3.8963132936868847
O	-1.273151229596721	5.571343419386885	-6.810409943686885
O	0.10674770440327896	2.0133656603868855	-6.250685463686885
O	3.5752550644032786	3.1643316493868854	-6.142345353686885
O	3.152752014403279	5.2140780493868855	-9.292974513686884
O	1.9112999644032789	2.1174621263868856	-11.167369293686885
O	4.695142814403279	-0.07185902061311444	-9.761758243686884
O	7.309149714403279	2.5330250513868853	-10.668241693686886
O	6.069767344403279	-1.1690243206131146	-14.473907283686884
O	12.006779034403278	1.5702963417868854	-4.080341433686884
O	14.445432634403279	-1.1275779506131145	-3.1968917636868848
O	12.67040613440328	-3.1711099906131146	-5.890206763686885
O	9.225281134403279	-2.1381703406131147	-4.6606590036868845
O	9.879337834403279	-3.273677890613114	-1.0964305516868849
O	11.471488234403278	-6.508132650613115	-2.318786145686885
O	6.019272954403279	-6.319666400613115	-1.7164039796868849
O	2.0028298144032792	-10.068453020613115	-1.898523319686885
O	2.497307134403279	-10.227747920613114	1.8801519363131154
O	2.115075984403279	-12.778587520613115	4.638640766313115
O	2.520995854403279	-12.237893320613114	8.390567436313114
O	-1.0092959926967209	-10.855346320613114	8.698955716313115
O	-1.281160390596721	-8.359388320613114	5.881032556313115
O	-0.9279176515967209	-7.786766930613114	2.1524073063131155
O	-2.850610495596721	-7.900319540613115	-1.1047990856868848
O	-3.9224874555967206	-4.580634170613115	-2.632876863686885
O	-6.031370045596721	-3.3468307606131145	-5.532227453686885
O	-4.677744565596721	-5.791014580613115	-8.110747963686885
O	-5.275742345596721	-8.791885020613115	-5.839715653686885
O	-8.82931038559672	-7.839301350613114	-4.922567043686885
O	-8.22686166559672	-6.682899940613115	-1.3815972026868848
O	-6.187437045596721	-7.658554710613114	1.6251227263131154
O	-5.463436065596722	-5.055933160613114	4.227940836313115
O	-4.403060575596721	-6.344579470613114	7.6064641363131145
O	-1.160235104096721	-5.5651246506131145	9.312890316313116
O	-2.414774885596721	-0.4324512006131145	9.420747816313115
O	-3.9826590955967207	1.0798335593868855	14.363437316313115
O	-3.762699585596721	4.176475519386885	12.181857816313116
O	0.870739034403279	6.777834029386885	8.885992416313115
O	0.9905711944032791	3.7092453293868854	11.130947616313115
O	5.064537934403279	3.2272805693868856	7.268945066313115
O	4.222016264403279	-0.5311294906131145	6.893825556313114
O	8.264967284403278	-3.5987585106131146	5.302322316313115
O	9.104979934403278	-9.299553120613114	3.8236774163131146
O	12.637335434403278	8.581311119386886	2.5687607163131148
O	8.278428144403279	10.721802819386886	3.703129446313115
O	9.934431334403278	14.057809579386886	3.9710739863131153
O	2.956318154403279	13.763000179386886	-3.358431833686885
O	2.066633294403279	12.734371979386886	-6.915581493686885
