82

O	-2.5140689206195117	3.060125631539024	1.9314441195609755
O	-2.498485190619512	1.781910941539024	1.3366423595609758
O	-1.5121706001195117	1.541735837539024	0.4748643095609757
O	-0.2458923406195117	1.864076231539024	0.7269124495609756
O	-0.19033992061951177	2.737209221539024	1.8309905795609758
O	-1.2698247586195117	3.397832042539024	2.2846169695609753
O	1.0253429093804884	2.016475488539024	0.26831175956097564
O	1.7475880893804883	1.838560828539024	1.4182087695609755
O	1.119407539380488	2.787730637539024	2.2392713395609753
O	1.237830679380488	2.6178728925390238	3.7392890095609754
O	2.353841729380488	0.46569497253902403	1.7012301895609758
O	1.5374059893804883	1.372082797539024	-0.8848939674390244
O	1.0321040593804884	-0.051313277460975915	-0.7525975814390244
O	-3.590188240619512	3.8137158325390237	1.2258561095609755
O	-4.018783640619512	4.861223632539025	1.6677784695609754
O	-3.524663660619512	3.735753422539024	-0.17524453443902432
O	-3.140696280619512	4.7787204925390245	-1.0546203844390243
O	-1.7293870836195118	4.731727632539024	-0.49460481943902435
O	-3.9751973006195116	5.817982662539023	-0.3781024294390244
O	-0.2181664106195118	-0.33079463746097604	-0.18670567743902433
O	-1.3856359398195117	-0.49742300746097623	-1.0498195894390243
O	-1.1059253486195117	-0.05437375746097617	-2.2714483004390242
O	-0.12199906061951182	-1.008768397460976	-2.6386534104390247
O	1.0153940193804885	-1.030348127460976	-1.7613476574390243
O	-1.4204785838195118	1.112956982539024	-3.0514649804390244
O	-1.4570867299195118	0.668834632539024	-4.387802560439025
O	-2.4849105206195117	1.217387585539024	-5.176060120439025
O	-2.559088770619512	2.609420980539024	-5.037147100439024
O	-2.432046191619512	2.950277409539024	-3.679495130439024
O	-2.414829764619512	1.978022564539024	-2.692970530439024
O	-1.6533753666195117	5.465708602539024	0.6870005495609757
O	-0.5259614816195117	6.275047232539024	0.9499775495609757
O	0.23403412938048818	6.540912932539024	-0.13902392043902445
O	0.5790981093804883	5.272998312539023	-0.6317800104390243
O	-0.5258154106195118	4.422708152539024	-0.9604537874390244
O	0.20507519938048824	7.833234482539024	-0.8049538064390244
O	-0.8092834796195117	8.737154702539023	-0.9149234704390243
O	1.318473939380488	8.285473512539024	-0.9054502044390244
O	-3.647589610619512	1.5440973805390241	-2.006838796439024
O	-3.991587100619512	0.354471382539024	-2.389147760439024
O	-4.791044970619511	2.3420948955390237	-2.3998608404390245
O	10.535853239380488	3.226180472539024	4.103951899560975
O	11.147786839380489	8.708162832539024	5.030699379560976
O	8.411917989380488	7.662615472539024	2.608789429560976
O	5.958517099380488	6.730270592539024	5.361508579560976
O	5.723323469380488	10.523549342539024	5.862802599560975
O	4.7839246893804885	11.392616672539024	2.274724019560976
O	7.875089989380488	-3.398878857460976	9.130398479560975
O	5.998535079380488	-6.315805077460976	7.499559299560975
O	2.826722549380488	-5.677800497460976	9.531027979560976
O	2.7879949193804885	-1.954515667460976	8.683692209560975
O	3.116584149380488	-2.939666807460976	5.082601639560975
O	0.3305758193804882	-5.489554687460976	5.296154999560976
O	-1.9304659826195119	-3.115725157460976	7.285980769560975
O	-1.1909824126195119	-0.6807380474609759	4.741122339560976
O	-2.2543529256195116	-2.9645488774609756	1.9248691495609755
O	-5.620854060619512	-3.3466179874609763	3.4372895395609753
O	-6.707495130619511	0.20238145253902395	3.4222959495609757
O	-6.205667360619512	0.263251222539024	-0.06416736043902427
O	-7.530789860619512	-3.0229013574609764	-0.9086861724390244
O	-10.774721760619512	-1.6807120674609761	0.5233991795609756
O	-10.589708310619512	1.5400409565390238	-1.4867303844390243
O	-10.076473590619512	-0.5849913874609762	-4.636331330439025
O	-12.932495660619512	-2.762238727460976	-3.7038658404390246
O	-14.988279260619512	0.5338342025390239	-3.729940730439024
O	-9.278546120619513	-9.509132637460976	-5.739162670439025
O	-4.315236490619512	-8.208008937460978	-8.894105750439024
O	-1.9419317316195117	-4.116361377460976	-9.809083880439024
O	1.4273046593804883	-0.31812620746097586	-11.512398020439024
O	4.2032679193804885	-2.9949888174609764	-11.642247320439024
O	5.324588369380488	-1.379489487460976	-7.741873440439025
O	3.9089706193804883	2.109545128439024	-7.627349750439024
O	2.278726449380488	3.021827278539024	-4.398892150439025
O	0.11034632938048827	5.744518112539025	-4.0013982004390245
O	-1.4765944352195117	7.353686992539024	-6.498601140439025
O	1.8751530593804882	6.625443872539024	-8.095085130439024
O	3.9234417593804887	8.805369082539023	-5.806491050439025
O	5.988938659380488	6.007871512539024	-4.316946250439025
O	8.356077529380489	-0.05038330746097586	-3.596325000439024
O	12.146544739380488	-4.932703737460976	-0.43680832643902434
O	-3.1500745806195116	-7.374139737460976	13.934621779560976
O	-8.075516250619511	-7.633135747460977	8.911000679560976
