96

O	-2.7307720667999997	-3.9971851823923075	2.123364600258462
O	1.7890718232000002	2.6346178276076926	0.7279222652584622
O	-4.8757775768	-2.0293321823923076	6.225973720258462
O	0.3637068132000003	2.2351792276076923	-2.4595968897415377
O	-0.18650843279999973	1.0783140127076924	-0.13128782614153783
O	-3.8944238367999997	-3.741513472392308	5.314404190258462
O	5.035432113200001	0.3028671396076925	-0.5241793677415378
O	2.5169954032	2.9108453576076925	-1.319787579741538
O	6.251647373200001	1.0476360146076924	-0.7969969637415378
O	-3.9248002467999994	-2.2070106623923076	3.2327617102584623
O	4.5538753732	0.9543098376076925	0.6409421022584622
O	6.351772873200001	2.4124250876076925	-0.38045852274153785
O	-1.9507802287999998	0.7581946966076925	2.051268150258462
O	-2.2154688567999994	0.22706135160769247	0.7260978862584622
O	1.3548874132000004	-0.4162276923923074	0.7051240302584622
O	0.9854732932000003	0.4307084456076925	-0.34334157974153784
O	-0.5079040787999997	-0.7863230923923075	2.4699318202584624
O	-2.7093342067999995	-2.6287133523923076	2.7256354102584623
O	-2.3976382068	-0.7483254323923074	4.1295491502584625
O	-0.48106997279999975	2.5170728076076925	0.3276242882584621
O	1.2626357032000002	2.7015472676076926	-1.3111244097415378
O	-1.8699849067999996	-0.4556277123923076	2.7838825902584623
O	0.010897543200000248	-0.7417546423923076	1.1568237202584621
O	4.0483004832	2.1138922026076923	0.24926703625846214
O	-0.8265999797999997	0.0783333676076925	0.40101232725846214
O	5.117439063200001	2.9958236876076922	-0.02628537064153784
O	0.7838208632000003	3.0945395976076924	-0.04323252574153784
O	2.8253026232000007	2.6774126676076926	-0.08403996130153785
O	-3.6735976167999995	-1.4565836823923073	4.343660360258462
O	-3.8789765068	-2.3494338123923075	5.483834230258462
O	4.5836118932000005	4.474661377607692	0.7203132532584622
O	-4.454541626799999	15.030947437607693	-0.7918160657415378
O	13.7015861432	2.1459713726076926	-3.478098019741538
O	13.7910799432	7.141935457607692	-2.304084409741538
O	13.8379410432	5.594954397607692	1.232888670258462
O	8.756583303200001	-6.845738832392308	1.024297960258462
O	8.472920933200001	-6.438627902392308	4.814338290258462
O	9.7990293432	-2.8353918623923073	4.802034890258462
O	7.1722606732	-1.9540209823923074	2.2551357302584623
O	4.4119780732	-3.7530546723923077	4.184897330258462
O	5.4722220832	-1.9819985423923074	7.362289210258462
O	5.547339783200001	1.3196673496076925	5.530345590258462
O	2.0408852332	0.9024971566076925	4.220439620258462
O	0.8452887532000004	0.5149491906076925	7.7456300502584625
O	1.9493040832000001	3.9103484276076923	8.912294980258464
O	0.024132593200000274	5.492060967607692	5.989311010258462
O	-2.8873114668	3.1698646376076924	6.701994580258462
O	-3.1981910568	4.314519527607692	10.301698690258464
O	-2.8649268267999997	7.954868167607692	9.225351760258462
O	-5.6626773468	7.378560217607692	6.670597200258462
O	-7.7959389568	5.655022157607693	9.358538750258463
O	-7.490564676799999	8.898926647607691	11.425547990258464
O	-8.5223693268	11.010062447607691	8.398410570258463
O	-10.589316586799999	-0.14320523239230742	4.6141568102584625
O	-8.9692040668	3.4725701076076927	2.1102940002584623
O	-9.1962026468	1.4532482396076924	-1.1678329797415379
O	-6.3992590868	5.010153127607692	-3.068015329741538
O	-7.7462110768	4.472227957607693	-6.579346199741538
O	-7.5326997368	8.320404417607692	-6.768041219741538
O	-3.7203785167999994	7.9691854776076925	-6.4197889497415375
O	-3.4290126167999997	5.0504149876076925	-8.912913209741538
O	0.5554027532000003	4.459146527607693	-7.182509659741537
O	1.4581720332	7.761851537607693	-5.551837829741538
O	3.0580089932000005	7.495457207607693	-2.1082185197415377
O	4.2617994232	9.925304787607693	0.6185084932584621
O	1.7927298432000003	12.714300937607693	-0.05631171154153784
O	2.3305630432000006	12.325642837607692	-3.777907489741538
O	6.119040793200001	12.744209537607691	-3.704457229741538
O	6.8397453832	9.178064177607691	-4.767467229741538
O	5.6202186632	3.0566368876076924	-6.680564979741538
O	7.7462427632	-3.3938775523923077	-8.609886459741537
O	4.9688624032	-4.298501262392308	-6.1612344697415375
O	4.0980213032	-7.315344352392308	-8.262135889741536
O	7.798191063200001	-8.37519675239231	-8.107265199741537
O	7.6739377932	-8.810118122392307	-4.305773879741538
O	7.945585273200001	-12.373741662392309	-2.9825286597415377
O	3.5494094132000003	-9.799387462392307	-0.34819982174153785
O	3.476730773200001	-9.353798262392306	-4.109190829741538
O	-1.3335201087999997	-7.331194222392308	-1.8110646297415378
O	-1.6619346827999997	-4.514956602392307	-4.354923809741538
O	-2.5871227567999995	-6.063482292392307	-7.585670799741538
O	-6.3791700468	-6.539487242392307	-6.786692859741538
O	-6.502462026799999	-2.8388730123923076	-5.871864579741538
O	-4.900894796799999	-1.7737250723923075	-9.151258879741537
O	-7.4036143268	-4.029870842392308	-10.947440509741536
O	-10.2641752368	-2.3101870023923077	-9.052403219741537
O	-8.7884124968	1.1935288521076926	-9.500521509741537
O	-10.9673441768	-6.440085232392308	-2.044778789741538
O	-11.0387764668	-6.1948196023923074	1.765337480258462
O	-6.4591028068	-8.241336812392309	2.0044388402584623
O	-7.696911666799999	-9.992762762392307	5.192116850258462
O	-2.9885337867999997	-11.002236062392306	6.500100450258462
O	1.1917997032000003	-13.606238262392306	7.206390830258462
O	5.440975313200001	-14.732817362392307	8.453406020258463
O	6.9805410632000005	-8.463970122392308	12.018341390258463
O	0.7022512232000002	-5.289457202392308	12.672911790258462
