88

O	2.0152412585672734	-0.8992920808181815	0.448298628563636
O	3.4187615785672736	-0.9846674808181817	0.6170168155636361
O	1.2905086885672736	-0.9437336508181815	1.557697837563636
O	1.5548135285672737	0.03967676918181828	-0.300935558436364
O	3.4985899785672734	0.5080075991818184	0.933859057563636
O	3.3727260685672737	-1.6906924408181818	1.941922287563636
O	0.16146721656727359	-0.35344189081818156	1.3062866975636362
O	1.2350062685672736	-2.0710916008181814	2.347814917563636
O	0.3140075855672736	0.18488195918181827	0.14426205156363603
O	2.2093628285672735	0.5116829541818183	-1.583610972436364
O	2.8375641185672738	0.4296292621818183	2.1171923575636358
O	3.590200748567274	1.6824596791818183	0.19178396756363603
O	3.1242140785672734	-0.6858134908181817	2.9534629175636358
O	-0.6665501464327264	-0.5697342108181818	2.402851407563636
O	0.4719249345672736	-2.1822208008181816	3.464144537563636
O	3.1022283585672734	-0.6005994608181817	-2.047748482436364
O	2.0847104385672734	1.5010303891818184	2.411301707563636
O	2.7762572885672734	2.6844413091818184	0.5491603005636361
O	-0.22477171843272642	-0.9554914208181815	3.631762987563636
O	-2.1165300014327264	-0.43534094081818164	2.176561287563636
O	1.2538078685672736	-2.4902010308181817	4.655922827563636
O	1.8291125885672734	2.379571339181818	1.4140182475636358
O	0.46686645656727355	2.7887619791818183	1.4082646975636361
O	0.048280967567273625	3.2713590591818185	0.23906384656363605
O	-0.19101907243272642	2.2935624291818186	2.5602598975636357
O	0.8584108085672737	3.718903799181818	-0.970605916436364
O	-1.3072040714327264	3.2501521291818185	0.329017825563636
O	-1.4239664984327263	2.706611239181818	2.696804527563636
O	0.28776378656727364	4.893462839181819	-1.4902390324363641
O	1.9408608985672737	3.769815109181818	-1.6505225524363638
O	-1.9260282114327263	2.5698223691818183	1.3965394975636358
O	1.2686867285672736	5.801090519181818	-1.626942882436364
O	2.3726890185672738	5.046527379181818	-1.606172052436364
O	-6.289542901432727	11.029376909181819	-4.205634442436364
O	-9.893811511432727	5.564850379181818	-6.636677972436364
O	1.9859128885672734	-6.719565840818182	-7.559031332436364
O	4.2970839185672745	-11.972104840818181	-6.204133582436364
O	7.073054778567274	-6.639033450818182	-6.966167092436364
O	6.937820268567274	-2.445115010818182	-9.922904552436362
O	9.612393958567274	-1.3676341508181817	-7.464201652436364
O	10.933177158567274	0.6844022731818183	-10.290824022436363
O	7.809384498567274	2.5382957391818186	-11.281901222436364
O	8.362826048567275	-8.321243400818181	4.004432257563636
O	10.787495558567274	-5.697392220818182	5.429106887563636
O	10.976946758567275	-3.719332750818182	2.114592647563636
O	7.282552378567274	-3.6548584408181815	1.988188747563636
O	6.993447278567274	-2.459019620818182	5.656706837563636
O	9.653952058567274	0.19191040518181834	5.164768837563636
O	7.742748028567274	1.3834069181818183	2.102454987563636
O	4.581015188567273	1.7898201201818185	4.224026647563636
O	6.252101328567274	4.127833359181818	6.485261667563636
O	7.208890088567273	6.729376579181819	3.906112687563636
O	3.7558420385672737	7.097248839181818	2.682304727563636
O	2.3968994885672736	6.811688949181818	6.376210617563636
O	4.325789878567274	9.919994879181818	7.202786097563636
O	3.1524616185672736	11.74359475918182	4.039256547563636
O	-0.4806001101327264	10.882968379181818	5.0017029375636355
O	0.11975367156727357	12.08560125918182	8.573511507563637
O	1.0829768485672735	15.480544959181818	6.995767737563636
O	-3.7839525714327262	6.0387781891818175	12.127431077563637
O	-5.217380171432726	6.5841718891818175	7.697640127563636
O	-6.930524041432726	3.1336804591818184	7.797779787563636
O	-7.265748281432726	3.437855389181818	2.890490137563636
O	-10.469828911432726	1.4818838011818183	2.645396467563636
O	-8.529196121432726	2.3587721791818184	-2.2818900624363643
O	-9.335410251432727	-1.2922144208181816	-1.351290032436364
O	-6.156139181432726	-5.788172610818181	-2.972438482436364
O	-5.168380771432727	-2.2067383108181815	-2.585839952436364
O	-4.2062168514327265	0.6444501601818183	-4.925672052436364
O	-0.6603768844327265	1.9521584911818184	-4.235278042436364
O	1.6583933185672737	4.809918849181818	-5.170387782436364
O	-1.0037713884327264	7.3835067391818185	-5.971977712436364
O	-3.1409104614327266	4.691335809181819	-7.728256552436364
O	-0.4136740319327264	3.5047217591818183	-10.052543522436363
O	0.056309374567273585	0.08952926918181836	-8.383729842436363
O	-2.3581666114327264	-2.5911648108181815	-7.138700162436364
O	-1.0787282954327264	-5.000836130818181	-4.493778662436364
O	-3.1186438914327264	-8.102727130818181	-4.0319546424363635
O	-4.461282541432727	-9.031802740818181	-0.625622298436364
O	-3.1260531814327264	-12.542427440818182	-1.2950507324363638
O	0.47297872856727363	-11.27881384081818	-1.7886101524363638
O	0.3232602415672736	-9.44248614081818	1.4781748375636359
O	4.374221108567273	-12.458608740818182	3.802334007563636
O	-3.0285832714327263	-5.762494020818181	6.282092697563636
O	-7.696285471432727	-3.536715080818182	7.315628927563636
O	-9.034605211432726	-5.465969960818182	4.316516637563636
O	-12.501473841432725	-2.0704670108181817	4.432253287563636
O	-14.860401741432726	-4.604739570818182	2.8315661875636358
