17

O	10.648665332495462	22.813586004420113	13.646228862766451
O	9.95863091842574	17.591793591814955	11.275341829300661
O	11.114215987169203	22.080078003216776	12.600870952230405
O	11.372720716788281	19.735899000947384	12.343013073124926
O	10.569235372250384	20.817151795152906	12.49608848855718
O	11.449872456834939	23.29913008546222	14.69158071169934
O	9.245275132781604	21.063906657302535	12.37318773005142
O	8.562599970926358	21.97462943870452	13.265915542452595
O	9.396256225159423	22.543932953380533	14.117559553541753
O	7.244604563215405	21.4927372157624	13.713188493210843
O	6.8619648731616625	20.354524854618884	14.144411497565347
O	6.946752040055271	19.0615968937236	13.395091068504358
O	8.229854075246541	18.56453972375446	13.798434559946303
O	8.5401675949787	17.400206814971863	13.091349031810013
O	8.691703836871511	17.587101771017345	11.754985341637662
O	7.470126213469568	18.137374268330916	11.354967367778523
O	7.192388834896506	19.28148333411707	12.021938433239464
