13

O	4.611689269461488	25.93670079948329	19.70750592488567
O	0.5446385369543678	29.78070943939315	18.182132066072292
O	-0.5334145320522777	29.66742384028339	19.078397711356185
O	0.9416632338072461	28.60437607658598	20.53329836573084
O	2.5102336776191962	27.125475645037557	19.53708046669555
O	1.1829963516376232	28.540999492667023	18.147629542759816
O	-0.0752981082005394	29.480128745684883	20.35256298712768
O	1.5831986832039808	28.188216842920134	19.39891220033622
O	3.8885043313500316	27.200337130015342	19.958236936607616
O	-1.1720327998003799	29.498819411187604	21.27455887406581
O	1.9399176253148576	26.108536925570647	19.950871019235983
O	-1.9180632811943346	28.379049886172876	21.117072252771358
O	-1.8020343550293894	30.54830769685862	21.3202792881303
