101

O	2.8986512606515147	0.6659983047121213	1.9036746299469707
O	1.5517641506515143	0.6552858457121213	1.9996926799469708
O	3.715659280651514	0.00065379171212121	0.9508752799469705
O	3.803374000651514	1.4466174477121212	2.6703390999469705
O	0.3022270216515144	1.3839418767121212	1.7494570599469705
O	4.862363420651515	0.6424629217121213	0.42045644894697043
O	4.532130300651515	2.347798151712121	1.9495996499469705
O	-1.0579289823484856	0.9450647477121212	1.7547609399469706
O	0.6575453506515144	2.4974210917121216	2.1706897099469704
O	5.2915436906515145	1.8646741197121213	0.9270784999469704
O	-0.8679021133484857	0.2936656647121213	2.9032387699469706
O	-1.9755381693484857	1.6455035757121212	0.9833546299469703
O	0.2537143486515143	-0.8155024982878787	2.6569847999469705
O	-1.2290558953484856	1.5619980137121212	-0.3518253700530296
O	-0.020574819348485596	-1.2309699282878788	1.2393095499469706
O	0.1750027816515144	1.3132660407121213	-0.32234211305302957
O	-0.18244530834848566	-1.1993154382878786	-0.07236697305302958
O	-1.0500255363484856	-1.9088356482878786	1.5118405699469704
O	1.4325975306515146	1.5385665737121212	-0.8177863900530296
O	-1.4901846683484856	-1.196734858287879	-0.7997255890530296
O	-2.2604491493484855	-2.0940779782878787	0.7593772999469705
O	2.4242911806515144	2.7161446917121213	-0.5265893777530296
O	-2.6542908493484854	-1.0729624982878787	-0.007925340053029584
O	3.3543436906515147	3.460356591712121	-1.2943158150530296
O	-3.7999284893484857	-0.2511039582878787	0.004202486946970452
O	3.9135555306515144	4.705625241712121	-0.6958907750530295
O	-5.069447289348486	-0.12792577828787866	0.37148724994697047
O	-5.3738221093484855	1.2555652237121213	0.47206052994697034
O	-5.071316689348485	-0.5130912482878787	1.8652036899469704
O	-6.437411179348485	-0.6386918882878787	-0.10377200605302955
O	-6.367468459348485	1.5551731347121214	1.2138507499469706
O	-5.988924179348485	1.7011649757121212	-0.7773428190530296
O	-3.6563502493484856	-0.6797117782878788	2.4284129499469707
O	6.073451160651515	2.7642306117121214	0.3232118919469704
O	3.0818277006515147	-0.9818181882878789	0.23850312194697043
O	15.817214710651516	4.873356021712121	0.8683435699469705
O	13.209960410651515	6.181236721712121	-1.6166276100530297
O	-4.063035819348486	14.997908891712122	2.3733420799469704
O	1.8342464906515143	7.975798521712121	-9.19699784005303
O	-1.2820068583484856	9.458743611712121	-7.513504390053029
O	0.5426134306515144	10.831571941712122	-4.46428196005303
O	1.6755943006515146	7.308322591712121	-3.7108907700530294
O	-1.8554887893484855	6.044556651712121	-4.275591100053029
O	-3.0262006193484856	8.592328531712122	-1.5828944400530296
O	-0.31432914634848563	7.597303161712121	0.9154075099469704
O	-1.5135043353484856	4.397214461712121	0.5285925199469704
O	-4.899477099348486	5.119725961712121	1.6579236499469707
O	-4.066535279348486	6.878913471712121	4.789333559946971
O	-2.0319859293484854	3.8608511317121215	5.708241689946971
O	-4.8124906593484855	1.3767511027121213	5.65044069994697
O	-7.041308999348486	3.7981947817121213	7.283232839946971
O	-4.884767919348485	3.535753831712121	10.41571120994697
O	-4.470328489348486	-0.2643617182878788	9.884977509946971
O	-8.231463119348486	-0.6624724182878787	9.83291170994697
O	-8.198908959348486	1.4229012907121212	12.972990509946971
O	-5.670086639348486	-0.7888054982878787	14.81384330994697
O	-7.370717499348485	-3.872764258287879	13.33267520994697
O	-9.161188419348486	-6.222796138287879	6.899232759946971
O	-7.551012439348486	-6.595135208287879	3.5135199099469707
O	-3.3937229293484856	-6.145338988287879	5.860993889946971
O	-1.4925096513484857	-8.132501318287877	3.1132445299469707
O	-0.16378758034848562	-10.653622908287877	5.480470719946971
O	1.1836966806515146	-7.892260028287878	7.770379989946971
O	2.6501104906515143	-6.009105228287879	4.792596769946971
O	4.904194360651514	-9.000007908287879	4.06694041994697
O	5.908292410651515	-8.608771168287879	7.715578659946971
O	7.465988810651515	-5.228999748287879	6.81829706994697
O	8.815554330651514	-5.987222438287879	3.3249275799469706
O	9.007288770651515	-2.0267409482878787	2.1579031499469705
O	9.252062610651514	0.1589256067121213	5.22604780994697
O	7.139933330651514	3.2649519917121212	5.309321769946971
O	6.5717448206515146	5.9556666617121214	7.950519289946971
O	12.161890710651514	5.169527051712121	5.34383769994697
O	12.518115810651514	2.4257684717121215	2.7974558199469706
O	10.625039210651515	2.536750511712121	-0.4532859265530296
O	10.500258310651514	2.9774544417121214	-7.72707791005303
O	7.160574730651515	1.3770309917121213	-6.9485755800530296
O	6.761403250651514	-0.3689461582878788	-10.29192087005303
O	7.695609230651515	2.763546131712121	-12.30127459005303
O	4.387561800651515	4.497693031712121	-11.46213659005303
O	1.7420333206515144	4.595376451712121	-14.222293390053029
O	-1.3632214463484855	2.110481493712121	-9.971313180053029
O	1.6543240906515146	-0.14794550828787867	-10.41926698005303
O	-0.9044001203484857	-2.8255488682878784	-11.24255189005303
O	-1.9537793093484854	-3.245953268287879	-7.69966826005303
O	1.4685266306515143	-2.9071633082878794	-5.921031550053029
O	3.403044390651514	-5.887249758287879	-7.348698320053029
O	0.9806612906515143	-8.834464268287878	-6.802963250053029
O	1.5012687806515146	-8.102320648287877	-3.1095477400530296
O	5.278229810651514	-8.134683808287878	-3.2897686400530293
O	3.0016394806515145	-12.819064508287878	-2.1114333400530296
O	4.995303220651515	-11.027168208287877	0.5258802799469705
O	-5.3302401493484854	-11.615204608287877	-3.6587556100530296
O	-7.950582939348486	-9.196047708287878	-2.2114678800530294
O	-7.022930859348485	-6.209020478287879	-5.41373174005303
O	-8.217753569348487	10.520395291712122	-8.42533567005303
O	-10.093103399348486	10.741337161712122	-5.08918051005303
O	-10.850549389348485	7.603614131712121	-3.0172210100530297
O	-12.153743389348486	2.4982684617121214	1.3356095099469703
O	-15.256994489348486	-1.7141580382878787	2.1045731399469707
O	-15.221823789348486	-2.3223754982878786	-1.6360098100530296
