85

O	-2.091095678016393	6.049758983801639	1.7748635658622953
O	2.863589551983607	5.948975883801639	0.021480660862295553
O	-2.630203648016393	4.821335023801639	1.4152610058622954
O	-1.056555412016393	6.235776303801639	2.641813105862296
O	1.8446900219836069	5.8645819938016395	0.9729330258622955
O	3.737150911983607	4.865245073801639	0.10018862686229552
O	-1.8093393980163932	3.7689166438016395	1.6975360558622954
O	-0.7994612980163931	5.115775733801639	3.4234457958622957
O	1.4409085919836069	4.591902253801639	1.2502041958622956
O	3.107960631983607	3.6273385738016395	0.18019143086229555
O	1.3872452619836069	0.16455021380163948	2.1314001858622955
O	-0.5375114202163931	0.7486776638016395	0.9705757058622955
O	2.099950551983607	1.0383020918016395	1.2897287558622954
O	0.2231629999836069	1.5976253958016393	0.1438897798622955
O	-0.3216474880163931	2.7443956238016396	3.282905535862296
O	-2.218248918016393	1.9051626598016393	4.464027625862296
O	-1.225129964016393	3.863225123801639	2.9686710558622957
O	-0.012248234016393078	0.1358947738016394	2.1111507058622956
O	1.8705952319836072	3.4329492638016395	0.7205381158622954
O	1.4091471819836068	2.0824246468016394	0.6410082058622955
O	-1.111416678016393	1.5925023178016393	3.600601265862296
O	-1.6646522180163932	2.0646471078016395	5.597846815862296
O	-3.0942286480163927	2.8453304238016397	3.8994043758622956
O	-0.759423499016393	0.2856596638016393	3.3115591858622957
O	-11.537952898016393	5.19832278380164	-3.1238483341377044
O	-11.768799898016393	5.082626173801639	-9.523713304137706
O	-8.482808368016393	3.2378395438016394	-8.949946804137705
O	8.054746481983608	6.412071883801639	-6.460034514137704
O	6.971127641983607	12.362849043801639	-2.9419223541377044
O	7.381392021983607	12.368773643801639	0.8574353658622955
O	12.334225001983608	0.5837232038016393	4.819275895862296
O	11.140025701983607	1.6678545828016393	8.291555205862295
O	9.574839301983607	4.93497615380164	7.009448075862296
O	7.626975761983606	2.9347953638016393	4.4608273158622955
O	6.5390662519836065	0.33730474380163944	7.058096065862296
O	5.497778151983606	3.1576060638016394	9.455286725862296
O	3.565075001983607	4.79517087380164	6.580061885862296
O	1.8527056019836072	1.5081489478016394	5.915292395862296
O	0.42415515298360695	1.5196545838016393	9.382096395862295
O	-1.268243836016393	4.8521119138016395	9.419526795862295
O	-3.373676218016393	4.21741648380164	6.551738975862296
O	-3.838588008016393	0.40771702380163943	7.664504475862295
O	-5.535111178016393	1.7902070219016395	10.760244925862295
O	-7.589241918016393	4.213502413801639	8.595084235862295
O	-8.639864698016392	1.2227706068016393	6.446310185862296
O	-9.540464128016392	-0.7560080861983607	9.624470425862295
O	-11.921242098016393	2.132614636801639	10.521648525862295
O	-13.458432198016393	2.0388373648016396	7.014524765862296
O	-9.911196398016392	-7.05986529619836	8.737435965862295
O	-6.513191758016394	-7.675456426198361	7.081258555862296
O	-7.410264468016393	-4.808723696198361	3.4706579358622958
O	-5.525988668016393	-7.173761586198362	1.0461562858622955
O	-9.135321308016392	-4.047283306198361	-1.5436706241377045
O	-5.467036348016394	-3.271770876198361	-1.9417421541377045
O	-5.515710818016394	-5.510997016198361	-5.058292554137704
O	-7.965188828016394	-2.9042960161983604	-6.492103554137704
O	-5.108499838016393	-0.34625656619836076	-6.2647514941377045
O	-2.4340394280163933	-2.707857086198361	-7.6861461141377045
O	3.033099371983607	-1.2430180561983606	-8.364948444137704
O	0.4556182299836069	0.1476471338016394	-6.024100594137704
O	-1.481354058016393	3.3812860538016394	-5.635876264137704
O	-0.8530298430163931	5.2016297438016394	-2.3653191541377043
O	-2.177523538016393	8.46373593380164	-0.7485815011377044
O	-5.726447148016393	8.27203310380164	-2.0338465941377044
O	-4.352817298016393	7.4446974538016395	-5.453409104137704
O	-1.992694758016393	10.43741069380164	-5.754452154137704
O	1.1744973519836068	8.31916657380164	-5.629143464137704
O	2.239561851983607	5.0739491838016395	-7.282244444137704
O	4.960127391983606	2.9423763538016394	-5.799604394137704
O	6.599296861983607	0.41843500380163934	-7.964984644137704
O	6.659132931983606	-3.217279036198361	-6.9869298641377044
O	11.143602801983608	-0.41366749619836063	-5.338592664137704
O	9.317927871983608	-2.3097872061983606	-2.575316914137704
O	11.186349601983608	-5.4804480761983605	-3.5558359541377045
O	14.466803101983608	-3.4845117261983605	-3.248894694137704
O	13.963085501983608	-2.9005665661983606	0.4887645788622956
O	10.919013301983608	-5.382073206198361	4.750521795862296
O	6.170645411983607	-7.688708156198361	2.8137830758622955
O	4.403129301983607	-6.643914266198362	-0.37041585773770447
O	0.16474291498360694	-9.29035995619836	-2.1331663841377044
O	1.190921441983607	-8.358453456198362	-5.681860714137704
O	-2.277803968016393	-12.477098956198361	-5.198697434137705
O	-3.505500068016393	-9.17916165619836	-6.726115904137704
O	-2.469439468016393	-10.01980635619836	-10.303328154137706
O	-2.232193868016393	-12.728132156198361	6.345830265862296
