84

O	-4.554141408578125	1.5750457546406254	-4.785779028921875
O	-4.735813098578125	2.8119795816406254	-5.005149748921875
O	-3.1658835385781248	1.1747489188406253	-4.506358348921875
O	-5.140262748578124	0.7584868026406253	-5.764156408921876
O	-2.6743798485781247	1.3412284376406254	-3.1356679289218747
O	-2.393728628578125	0.17942091464062526	-2.271768088921875
O	-1.0553236757781246	-0.4037038783593747	-2.069712378921875
O	-0.6238713315781246	-0.8632009583593745	-0.669238484921875
O	0.2797093614218753	-2.061174158359375	-0.897547664921875
O	1.5944226014218752	-1.8919303083593748	-0.200246502921875
O	2.4862212614218753	-0.8436916983593745	-0.801057106921875
O	3.6024337614218758	-0.6312882683593748	0.21757105807812493
O	3.2334024514218753	-1.1743989083593749	1.512459131078125
O	2.3197539614218754	-0.8035828383593746	2.355347221078125
O	1.2857253114218752	0.10552722164062533	1.851184761078125
O	1.7568870414218756	1.2480847785406253	1.052676371078125
O	3.062137521421876	1.7152678136406254	1.7454383710781252
O	3.1408277314218753	2.9599414916406253	2.5253183310781253
O	4.468297671421876	3.493946091640625	2.9812392710781253
O	4.410637191421875	4.497803811640625	4.087758711078124
O	13.451764721421874	2.2702828016406253	9.863202701078125
O	10.254814521421874	4.362909121640625	9.650270301078125
O	7.875307841421876	4.267356881640625	12.633968601078125
O	3.1962900114218757	14.320748401640625	-5.722019648921876
O	-2.297192288578125	8.988923341640625	6.746102651078124
O	-2.9347992085781245	10.462814821640626	3.257486411078125
O	0.7310724314218753	10.983756971640625	2.413182311078125
O	1.2033286814218753	7.229475241640625	2.834826631078125
O	-1.8616316155781245	6.4466416816406245	0.749089581078125
O	-0.3247036575781246	8.542498881640626	-2.038036348921875
O	3.039344611421875	6.801083531640625	-1.741951438921875
O	1.1389563514218755	3.5985205516406253	-2.210506078921875
O	-0.37032407857812466	4.783880471640625	-5.4369365189218755
O	2.8107659114218753	5.967986571640624	-7.054083638921876
O	4.250217421421876	2.6048840616406252	-6.086832008921875
O	1.6228719114218753	0.5985538716406252	-7.905872498921875
O	1.9918556814218755	3.0268817516406252	-10.821244598921874
O	5.601003701421876	1.9939286686406252	-11.454784198921875
O	4.695906261421875	-1.649096258359375	-10.706270598921874
O	2.0121117014218752	-1.523335658359375	-13.381538098921874
O	7.182638811421874	-2.883652248359375	-15.035646098921875
O	-3.2997231585781246	-5.950372298359374	-8.261217268921875
O	1.2068558314218754	-6.607194428359374	-6.973225938921876
O	0.1856339214218754	-8.176663378359375	-3.681705868921875
O	5.285332331421875	-9.393509498359375	-5.028666308921875
O	4.709350011421876	-7.228253588359376	-1.961407388921875
O	5.038948171421875	-10.331047898359374	0.22485807207812503
O	8.335768751421876	-10.790174198359376	-1.596280218921875
O	9.581590021421874	-7.558969398359375	0.05778971407812494
O	7.881534951421875	-7.768644938359374	3.458724991078125
O	8.163629741421875	-3.741990808359375	4.3398220810781245
O	10.991046921421875	-2.271712538359375	2.316474971078125
O	10.246695321421875	1.0423416426406253	0.666435971078125
O	11.993548521421875	-0.01186467835937477	6.237063131078124
O	8.441071561421875	1.0071925296406252	7.036824911078124
O	3.4642282014218755	2.7115707216406255	12.109577801078126
O	1.3516199914218752	1.4407396316406254	9.244768181078125
O	-1.6417027985781245	0.4166724626406253	11.349164701078125
O	-1.6635434955781245	3.7237676016406254	13.285748001078126
O	-2.9282676385781246	5.690290971640625	10.258922501078125
O	-6.626696688578125	6.687962781640625	10.300030201078126
O	-6.436311758578125	3.8776890916406255	5.228156831078125
O	-5.213460778578124	1.3488415716406252	7.809951941078125
O	-8.132146108578125	-0.7510493183593747	6.572097751078124
O	-6.363206758578125	-1.5801253683593748	3.275139331078125
O	-2.8401930985781245	-2.1210198083593745	4.5976961110781245
O	-3.194841428578125	-5.028297868359374	7.033091991078124
O	-5.103484958578125	-7.552374188359375	4.857973061078124
O	-1.9939976245781246	-7.531357408359375	2.674205311078125
O	0.3965159414218753	-8.183998558359376	5.573072461078125
O	-1.4516542305781246	-12.552867898359375	3.179865171078125
O	2.1739058114218754	-11.660658398359375	2.802250561078125
O	-7.813311668578125	-9.906766298359376	-1.6685366789218752
O	-8.016442998578125	-7.421057338359375	-4.5600214589218755
O	-11.779023978578126	-7.8394630483593755	-4.751369208921876
O	-9.080103788578125	-4.207053088359375	-1.7091464689218752
O	-11.234408678578125	-2.537990208359375	-4.406078488921875
O	-10.614215538578126	1.8303624996406254	-2.259034328921875
O	-8.063086168578124	12.651768901640624	-1.060263321921875
O	-6.929597418578124	12.490645801640625	-4.701344688921876
O	-6.822058978578125	9.156559171640625	-6.569851338921875
O	-5.8883291685781245	3.6127853916406254	-10.390359458921875
O	-8.445062038578124	-0.12477448835937466	-13.067535898921875
O	-11.142004778578125	-0.054983298359374766	-10.396068828921875
