25

O	8.303979546540571	26.613216302801757	14.404133546222596
O	3.4464093171602848	26.320455344489623	15.26716679689868
O	4.463015795173687	27.55257150640934	13.846816510362789
O	5.3923922911580195	25.227658804023143	13.998722156184831
O	5.150080027644047	26.501951738085705	17.827098834053132
O	4.938801919025657	25.367168844485747	18.53716015222445
O	6.1908305487964395	26.336043920610493	16.966740466458116
O	5.6984440921198	24.213108162828064	18.26497769157899
O	6.707321695010098	25.10516528081626	16.733617150787634
O	8.461472059846496	23.6288642591034	15.004810031954786
O	5.493995493697621	23.814501559581664	13.596444761251295
O	6.184629843309374	22.596765227241438	16.576765388384295
O	7.515921277234876	22.244892254741146	16.718945309949945
O	4.60084033325225	26.146812429115897	14.380384953724933
O	7.724038045971843	20.008525666533032	14.56001526942472
O	6.070442190834204	23.98434007526558	16.93112650369701
O	7.274649955014176	21.927777399677403	13.333384630049332
O	8.150250625548578	22.36697320549262	15.405288531499222
O	7.771875029188948	24.23377421148285	13.904296992596725
O	6.841161191243714	23.263815046367856	13.472004370261672
O	7.746745305735612	21.435494996988407	14.507516208175794
O	8.443460965826686	19.511725438600223	13.623845487595796
O	6.622789753588284	19.191794743515263	14.661510247613876
O	6.328499052128637	21.191276164450205	12.582027573252136
O	7.458056844459682	25.605083895214097	13.910218205745803
