20

O	-0.5006998448415938	30.790431958651354	15.834503694160556
O	-3.076207318574412	30.964176345672985	18.883793712821515
O	-2.6427247454485276	30.502889076503305	20.113891272583665
O	-3.0280934555234804	30.06945400116934	17.87751157733896
O	-1.4613557718787977	29.782662995371115	19.9720016416842
O	-2.2111598609431353	28.987527413879242	17.997780899510815
O	1.4531983591988409	30.006307979840713	18.80964888178221
O	0.8974257877549094	28.88023443456179	16.920190052402944
O	2.098689978065457	28.91980504975204	19.292249291971952
O	1.3479115614389885	27.727360781836637	17.4579499959571
O	0.10621884264680082	31.10229679454493	17.139985138342457
O	-0.570471208352421	27.67939312534271	18.847244535119348
O	0.2660272386132752	28.195795501270194	20.881720737250458
O	1.1330570719255884	30.103141354773562	17.46063410984967
O	-1.5592656615124347	28.69824520460876	19.16807369920576
O	2.0473991719957296	27.722443864620463	18.6327112740661
O	0.22818246481882049	27.105297426796845	19.862555841340868
O	1.2322492071592943	28.007763250344574	21.635754902191955
O	-0.9392311390802521	27.953633359184742	21.579027049373583
O	1.4836499158088539	26.70976000137278	19.43803563622169
