23

O	8.210583917061744	24.372097531812155	14.426748000869328
O	7.814651522991466	23.60825025550523	15.644994991447312
O	8.75759567403454	24.209849266352347	16.713108740724316
O	8.013940797423786	25.439110175687723	17.317642496745655
O	7.506585986582812	25.96626721976968	16.00395040265534
O	6.218390991384554	26.518402292750192	16.247514665479194
O	6.105641940056027	27.217183497208453	17.334566458251423
O	6.73524313532703	26.50316891717058	18.54042726886668
O	5.907678355617529	25.769705639890134	19.122195155760842
O	5.130380180222855	25.245671421935906	20.040127593627602
O	4.66261233394814	26.026368375812105	21.12816469274968
O	4.99577577198131	24.014909845445253	19.701639471853095
O	6.33627059500045	23.76750157163425	18.67401042220887
O	5.654772097145027	24.799812207591636	17.925184820345326
O	4.370459157276701	25.438969533805466	17.84876872139197
O	3.8525490988067266	26.59204846202325	18.550653318865773
O	2.72057987964936	27.143308658823	18.776007669851218
O	1.8762586635774028	26.245716658865106	19.564103985019074
O	0.8564343232817198	26.906088200924124	20.432067489343098
O	0.2653027190755122	28.21164628938498	20.093442596793462
O	-1.1818771072843353	28.36812451334821	20.270134122849072
O	-1.7020791235543937	29.449923169911845	19.9194987092729
O	-2.037943533625432	27.459103213960805	20.83988048569419
