95

O	-4.717001727985075	-4.983722816059702	2.6927593596731336
O	-4.678936237985075	-3.7818026560597016	1.9063693696731339
O	-3.517224147985075	-4.201654846059702	1.0585130596731338
O	-2.1979667899850748	-4.115312546059702	2.381549609673134
O	-3.379619837985075	-5.060774366059701	3.233865749673134
O	-2.9411224679850747	-6.2555468060597015	3.4306606596731335
O	-5.720027537985075	-3.4565872160597015	1.231328099673134
O	-3.186180607985075	-3.0878697860597013	0.22905044367313387
O	-2.8797828879850753	-2.1308834860597012	1.433485489673134
O	-1.698928166985075	-1.8574457660597012	1.924684459673134
O	-1.658995178985075	-0.5512478400597014	2.2998805496731336
O	-2.158339416985075	0.41327298394029854	1.4952271696731338
O	-3.451795677985075	0.21412201664029856	1.0180111696731338
O	-3.636303507985075	-1.1237116460597014	0.8206857196731339
O	-1.912185204985075	1.6510897739402985	1.840617099673134
O	-0.798839774985075	1.9260019339402985	2.785448569673134
O	0.3848562420149251	1.4422711339402985	1.9930654496731337
O	0.1792869620149249	1.6338869039402986	0.5691230836731339
O	0.20388373201492493	0.44695003094029856	-0.07653747832686614
O	1.1462238520149248	-0.06311333305970146	0.762287199673134
O	1.1052547720149248	0.35429597934029855	2.0052198996731336
O	-0.483731917985075	-0.47121123405970144	-0.8671098753268661
O	-0.12013210798507501	-1.7620281660597015	-0.6777249953268661
O	1.266034362014925	-1.8374938560597016	-0.48915202332686614
O	1.9759757820149249	-0.9410422360597015	0.22364823667313383
O	-0.775942890985075	2.6034376239402985	-0.026074228326866122
O	-0.5128157679850751	-3.0106735260597013	-1.1112575363268662
O	-0.031281577985075026	-3.9812753860597017	-0.18145221132686612
O	-9.870230697985075	11.652928033940299	1.657776259673134
O	-5.237367567985075	13.972587833940299	-2.846271210326866
O	10.933391272014926	5.261387403940298	6.983739599673133
O	8.223471342014925	8.818093713940298	9.460146839673135
O	7.2994397520149255	5.742754653940299	11.542011999673134
O	9.108779972014926	-5.3930133660597015	4.270166359673134
O	6.922745412014925	-7.051859416059702	6.936558449673134
O	6.337586952014925	-3.7466050960597013	8.816361639673133
O	5.123571772014925	-2.0962529260597016	5.616183899673134
O	2.9159127520149246	-5.1341688060597015	4.833754179673134
O	1.474655122014925	-5.1559053460597015	8.333383999673133
O	0.9404768420149252	-1.3617374660597015	8.067646039673134
O	-0.9250232639850751	-1.7229458360597014	5.178881129673134
O	-3.375186757985075	-3.9366956260597012	6.790333129673134
O	-4.635437917985075	-1.5610516260597014	9.114637939673134
O	-5.453403227985075	0.8075059449402986	6.256483549673134
O	-7.051840687985075	-1.9521442460597016	4.3596438996731335
O	-9.453952677985075	-2.9196674860597014	6.986537939673133
O	-10.292293827985073	0.7397882259402986	7.513294779673133
O	-10.944661477985075	1.0994635779402986	3.755727119673134
O	-13.096514927985076	-2.0699139360597014	3.7992325496731336
O	-15.271599527985074	-0.37100796505970146	6.4769727096731335
O	-15.543286227985075	2.8037028439402985	4.344325089673133
O	-10.407987897985073	-4.863387856059702	-3.1944627003268664
O	-9.606047537985074	-0.22256863505970143	-2.823717850326866
O	-7.273447737985075	-0.2715498800597015	-5.929629160326867
O	-5.687405317985075	4.072481543940299	-4.264966680326866
O	-4.900673517985075	5.269526373940298	-7.8000875103268665
O	-6.357232967985075	8.631362003940298	-6.595431190326867
O	-3.476126517985075	8.7622832239403	-4.051962830326866
O	-0.781864507985075	7.647890493940299	-6.5586861203268665
O	1.6721140620149249	6.857675323940299	-3.015133640326866
O	0.12385362201492489	9.011936773940299	-0.2815011683268661
O	-0.187750467985075	7.336053543940299	3.122995569673134
O	-1.708041566985075	8.106677883940298	6.588616569673134
O	-4.473350777985075	10.4142300339403	5.402173739673134
O	-2.109655603985075	12.084258733940299	2.965149809673134
O	0.5572148620149249	13.039732233940299	5.5344025796731335
O	3.205527602014925	10.707485433940299	4.095930189673133
O	4.352263782014925	9.743353873940299	0.6031725196731339
O	5.973742872014925	6.386879143940298	-0.02611733232686614
O	7.409358142014924	3.6701668539402985	-5.825634050326866
O	11.338847972014925	2.3089952939402987	-2.153171340326866
O	8.521950472014925	-0.20167634105970145	-2.488638690326866
O	10.194847172014924	-1.7886028660597013	-5.484616510326866
O	13.384655872014925	-2.1152915460597015	-3.334433460326866
O	11.689221472014925	-4.495726786059701	-0.8554924103268662
O	12.853106572014926	-8.116123046059702	-0.8278342593268662
O	7.168036212014925	-8.102752286059701	-0.9125439993268661
O	8.679497472014926	-5.791109096059701	-3.550971060326866
O	3.0831043020149247	-6.116995736059701	-4.3788764503268665
O	2.6744501420149254	-2.4726910360597016	-5.458969640326866
O	4.176909832014925	-2.1681362960597013	-8.819323160326867
O	1.122962062014925	-3.5820426460597012	-10.796983500326867
O	-1.072165154985075	-1.0048445060597013	-8.974666710326867
O	1.2264036420149251	1.8803237639402985	-9.924396600326867
O	1.1413395620149251	0.5498308849402986	-13.484638900326866
O	-2.695211757985075	0.5197610189402986	-13.386218200326866
O	-2.901001967985075	3.8898295139402985	-11.576763600326867
O	-4.661780277985075	-6.721811776059702	-10.134059380326866
O	-6.610529207985075	-8.496699156059702	-7.368861900326866
O	-2.2719032919850752	-9.6775755160597	-5.151461240326866
O	-4.0544725579850756	-12.945638966059702	-4.0575039703268665
O	-0.612717380985075	-13.563019166059702	-0.46239734042686614
O	3.3651082620149246	-15.504526366059702	1.850107149673134
O	6.546461312014926	-16.3591751660597	5.021866439673134
O	3.2591563420149248	-12.7340323660597	10.518210099673134
