19

O	2.573366016680491	29.034177887842798	18.17389026335676
O	3.6519798634013907	28.448012194874906	16.55302913280195
O	4.797523396972155	28.005385201670805	17.53918467138978
O	3.459580399958176	26.979112126797382	17.055811297633074
O	5.819608306715894	27.454179855015585	16.424894800190817
O	4.108095915303435	26.41830690389638	15.701057253088827
O	5.5268290516719265	26.122324258624865	15.994782931492004
O	3.370383216065924	27.583373600722183	19.368293900010155
O	3.807090507640048	25.34214340566197	18.71299318678014
O	5.240370603038054	25.303954451122273	18.93140209997323
O	2.9698837488541665	26.142468675150955	19.653600754601076
O	5.605829537494001	26.498908110116922	19.690355640284217
O	4.552942930622463	27.60557533037563	19.797723231791544
O	1.2850532634414515	27.70139292340432	18.933749378569104
O	1.430857884672611	27.75484562827638	16.711735739910228
O	1.3242604748617934	26.68885101529764	17.97350154945082
O	0.694334632990945	28.72221503542312	17.54423260302681
O	-0.22270503578778067	28.80430359840761	18.69258008860816
O	0.35837417095487867	28.285828401482068	19.852536411076898
