30

O	6.479483181579108	22.580001637663955	19.713179879374938
O	5.335928801836784	23.28172042187088	19.038323759439546
O	4.7297491632498625	22.130922087666285	18.63554966956898
O	4.770886795728823	24.244229078671623	19.56783698310662
O	5.474346359652688	25.0225550223667	20.45666304158787
O	6.409682576822362	24.3413128271544	21.08549345625113
O	6.0425281503350625	23.643537936916825	22.182816335580785
O	5.01108846945255	23.7501694021621	23.029371309763427
O	4.781958128665169	22.313862765112997	23.266269816613253
O	4.696112618325408	21.460582048362237	21.947995265414306
O	4.2226043897045455	22.607875366933463	21.66666769645972
O	3.047104331220388	23.12041202781063	22.07504346550627
O	2.6362624287728296	22.734711006289537	20.879139065543185
O	2.098327718483136	23.64462064655721	20.087525338164433
O	2.1300850428068108	24.899152152493663	20.427255908880973
O	2.5113177164178273	25.255664304994227	19.134806095837483
O	3.104514491987716	26.40469749511994	19.088839547486923
O	2.789879151186156	26.595441793572697	20.408810646469508
O	3.528528412973426	27.352949005008774	21.122944266089583
O	2.861374954095031	28.0435857515353	22.17166037126871
O	1.509721394733074	28.240351899895654	22.23470411592134
O	0.779351144445005	27.92615989417719	21.12728369544618
O	1.5082734980302872	27.005573294135527	20.301474935312335
O	1.743183980189836	24.99621774048317	21.715689802243105
O	2.272714236933159	24.09850526915202	22.531003623634792
O	4.667279997762924	25.017558964220402	22.666092471468286
O	5.067502821292894	25.667430413291505	21.53174641352944
O	5.997012128380923	24.301384912281996	18.27913394663719
O	5.492732199041388	25.47914661344369	18.284150688460223
O	7.129527867741132	24.775519674410997	18.95514603128829
