106

O	0.2580298327046872	-1.0058221578265631	-2.1832533085156247
O	0.3834373177046872	-0.031147333826563095	-1.1374929935156248
O	-0.7015138552953128	-0.27955710782656307	-0.4591403845156248
O	-0.2352233182953128	-1.2080107078265632	0.3231675424843752
O	0.4287777677046872	-2.136207197826563	-0.3128322645156248
O	0.40461013970468723	-2.2322451278265634	-1.651487452515625
O	0.3280087637046872	-0.550232147826563	-3.576702378515625
O	0.8885673577046871	0.5829888591734369	-3.670620318515625
O	2.1579382077046874	0.3439456181734369	-2.803737198515625
O	3.1885048877046875	-0.6373690378265631	-2.9410776285156244
O	2.9040903377046874	-1.9788228978265632	-3.005058948515625
O	3.733501497704687	-2.7642217678265633	-2.090220438515625
O	3.6563811877046875	-2.5845334778265627	-0.8092546515156248
O	3.2671082077046876	-1.303304437826563	-0.8744282095156248
O	3.9853508977046874	-0.4980713578265632	-1.7981016685156248
O	-2.0099668422953125	-0.041007960826563106	-0.0022668795156247645
O	-2.3976198822953125	1.146757001173437	-0.1683926935156248
O	-1.2288459292953127	1.7490836201734368	-0.7692029015156248
O	-0.8379714292953129	2.396786702173437	-1.8208680685156249
O	-0.33107438005531276	3.7073000321734373	-1.5079478855156248
O	-0.6166274252953128	3.9632497421734367	-0.22514208151562481
O	-0.007682057295312794	3.048573522173437	0.6381920914843753
O	-0.13987318729531278	1.815632182173437	0.1925816214843752
O	-1.1200849672953128	5.092757082173437	0.5628419214843752
O	0.03010733470468724	-3.2099276578265634	0.9914647714843752
O	1.0525382577046871	-2.4543306978265633	2.2960909514843753
O	2.3005305777046874	-2.999211627826563	1.892054871484375
O	3.372645777704687	-2.278403667826563	2.4258122414843752
O	3.1415091777046875	-0.982837537826563	2.060148001484375
O	1.884829997704687	-0.35411675782656316	1.896154671484375
O	0.9006510877046872	-1.128415457826563	2.399883901484375
O	-0.21160648829531278	-0.283057857826563	2.750310321484375
O	0.4498810377046872	0.9478238071734368	3.250447211484375
O	1.714229507704687	0.9305783861734369	2.537681481484375
O	4.296230797704687	-0.6807946678265631	1.2310426214843753
O	5.530704067704687	-1.090957167826563	1.0516091314843752
O	6.243505727704687	-2.0325968178265628	0.3672861414843751
O	7.275316907704687	-2.420396967826563	0.8930544414843753
O	6.521715797704687	-1.7517672378265632	-0.9247233395156248
O	-0.3493152125953128	5.215984062173437	1.617403581484375
O	-1.1927141512953128	5.969839902173437	-0.3971150455156248
O	-2.1556069222953127	4.475073262173437	1.1653259214843752
O	0.49722147670468725	-10.928584527826562	-11.424518788515625
O	-8.773395942295313	-9.750775827826562	-8.006819648515625
O	-10.103905862295314	9.423503012173438	-6.275291608515625
O	-7.195529522295313	10.641193162173437	-4.112527698515625
O	-7.933087352295313	12.302102872173437	-0.7802187185156249
O	12.126310347704687	8.115488662173437	-6.967224788515625
O	3.7315980577046877	11.464480872173437	4.638880871484375
O	7.2243290277046865	10.349534042173438	3.342403061484375
O	6.281863027704687	10.500868732173437	-0.3766717855156248
O	3.6395260477046874	7.957624942173437	0.34560490148437517
O	6.039215597704687	5.781496272173436	2.289989241484375
O	8.205515067704686	5.793249072173436	-0.8627742745156248
O	5.357661677704687	4.806677442173437	-3.132789908515625
O	4.395781947704687	2.169447942173437	-0.8910071205156248
O	8.135600667704686	1.026807388173437	-1.7216010785156248
O	8.288544097704687	0.8598424979734369	-5.219520808515625
O	5.115180387704687	-0.959169317826563	-5.356928358515625
O	6.2814405977046865	-4.087329447826563	-3.4226602685156244
O	9.407104327704687	-3.9508819578265637	-5.285061498515625
O	7.383091917704687	-4.944353117826563	-8.279988268515625
O	5.229600787704687	-7.321084787826563	-6.140514258515625
O	8.336199677704688	-9.115934867826562	-4.986578918515625
O	6.083831187704687	-10.853777127826563	-9.781916798515626
O	6.112664087704687	-13.042436727826562	-6.654905348515625
O	6.555889607704687	-12.035718227826562	0.32741851648437514
O	4.938131487704687	-9.858441027826563	2.9370757114843755
O	1.5188388877046872	-9.127917727826562	-0.2813859365156248
O	-1.0468320552953128	-8.302353337826563	2.453954711484375
O	-3.4257278222953125	-10.958403327826563	1.367302221484375
O	-3.3748634622953126	-9.681089727826562	-2.212667728515625
O	-3.8624587122953127	-6.124491967826564	-0.9589491845156248
O	-7.201404712295313	-7.037788677826564	0.4422113114843751
O	-7.843595122295313	-8.283435997826562	-3.072257488515625
O	-7.592198292295313	-4.682850137826564	-4.330982478515625
O	-9.171170272295313	-2.8136687378265632	-1.410541260515625
O	-9.957856232295313	2.7841576821734373	-0.1365756585156248
O	-7.4338703722953134	0.866061756173437	-2.319668968515625
O	-6.6589346122953135	0.886794175173437	-6.058062538515625
O	-3.2179271722953127	2.149339592173437	-7.018794948515625
O	-1.3435245022953128	2.617236802173437	-10.191699008515625
O	-6.796953022295313	5.724385682173437	-9.317951578515625
O	-8.441962822295313	5.208293772173437	-5.946953738515625
O	-6.647353142295313	6.253206542173436	-2.7443380085156246
O	-8.894066742295314	6.763498702173437	0.2557520624843752
O	-6.428982842295313	10.481028272173438	3.2517883414843753
O	-4.443634992295313	7.533122502173437	4.396990551484375
O	-4.807901962295313	7.864638322173437	8.030857551484376
O	-4.090048512295313	11.636815672173437	7.927668501484375
O	-0.36310350119531276	11.133684072173438	7.320785031484375
O	3.5583120077046875	6.283545352173436	8.912161611484375
O	-0.24863157349531279	6.077522632173436	9.478276511484374
O	1.4090440977046872	0.836165559473437	9.543170211484375
O	-1.415293012295313	1.561182034173437	7.059448881484375
O	-4.560246122295313	0.8388861349734369	8.921560531484374
O	-3.7258524922953127	-2.6297976878265628	10.442484111484376
O	-3.8081338722953126	-3.780518627826563	6.835977501484375
O	-7.177710442295313	-2.285911617826563	6.092534791484375
O	-7.326784322295313	-7.286418747826564	7.8878710714843745
O	-8.271231252295312	-6.602086627826563	4.334862941484375
O	0.4269406687046872	-8.933566217826563	10.797557911484375
O	3.9239222377046876	-8.920043277826563	9.074819751484375
O	15.465974447704687	6.5762783421734365	2.743158551484375
O	14.653185647704687	2.847476582173437	2.673640001484375
O	13.261653547704688	-3.8168076878265635	1.5541415014843751
