86

O	-1.12018911015	1.2629035511107143	5.492475329064285
O	-0.7933007251499999	1.9386243109107144	4.304478979064285
O	-0.97981413215	1.5222997019107143	2.9600735090642853
O	-2.19239312815	0.8317718019107143	2.9777160290642852
O	-2.79462239115	0.3354770219107144	4.179568779064285
O	-2.10713307415	0.32683354191071423	5.395460099064286
O	-0.15897754115000007	0.8531750999107144	2.0415665090642854
O	-0.9374436551499999	-0.20126495808928557	1.5185040390642852
O	-2.22420325815	0.16459158191071444	1.831922279064285
O	1.13279440885	0.43404562391071433	2.023022009064285
O	1.3860511388499999	-0.9226310980892856	2.356190589064285
O	0.36312825885	-1.8909961480892856	2.4508928190642854
O	-0.51141585115	-1.5250423380892855	1.3892923490642852
O	-3.1993895011499998	-0.25606546808928576	0.9299973390642853
O	-2.7575348011500003	-0.9957330880892856	-0.2618560619357148
O	-3.2129609111499997	-0.0966581180892856	-1.3168743399357148
O	-2.25303996815	0.8471171579107144	-1.1803131419357147
O	-0.92910839615	0.6551259819107144	-1.444727040935715
O	-0.17839264114999986	1.7957592049107143	-1.082694143935715
O	-0.69628219915	3.0154204719107143	-0.8302342969357148
O	-1.78771123615	2.8316726619107144	-0.045370488935714826
O	-2.67406134115	1.7557580949107143	-0.21453192993571482
O	-0.79113509615	3.9733607719107145	-1.9224292209357148
O	-1.82963338015	3.8713151819107146	-2.895391330935715
O	-2.79310075115	4.942249881910714	-2.4864390309357147
O	-3.3230491311500003	4.5595173419107144	-1.477155460935715
O	-3.45999990115	5.4440943619107145	-3.5024640209357147
O	-2.67278155115	2.9428664719107145	-3.341194200935715
O	-4.01000732115	2.9717593019107142	-3.045706520935715
O	-4.53849777115	1.6784817559107144	-3.686697340935715
O	11.42547624885	5.454540341910715	3.9517588690642853
O	15.543960748850001	0.7861054839107143	5.3731647190642855
O	12.59452414885	-1.3077082080892857	4.209106819064285
O	-3.05633201115	-2.7603738780892857	14.803518149064285
O	-12.370807051149999	-4.0434777780892865	3.0075379190642852
O	-11.57915735115	0.6754433069107143	5.942767269064285
O	-8.545323301149999	-0.7517432580892858	4.303785669064285
O	-9.403877881149999	0.9776649059107143	0.9538154390642852
O	-9.98465997115	4.306917341910714	2.715161009064285
O	-6.7586277611500005	3.9539779419107144	4.617539609064285
O	-4.96596188115	3.4460890719107145	1.662797029064285
O	-5.99132637115	6.825743791910714	0.34740180706428514
O	-4.38684465115	8.788320331910715	3.0050958590642853
O	-0.9776937701499999	7.191213081910714	2.368964729064285
O	-1.32627559375	7.705212031910714	-1.1074199869357149
O	-1.98976687315	11.231442251910714	-1.1768021069357149
O	1.0469559388499998	11.549658701910714	1.1530274090642851
O	3.14294879885	9.626840941910714	-1.4251248909357148
O	1.77521702885	11.848545001910713	-4.258228060935715
O	3.16883520885	14.845233701910713	-2.291773240935715
O	6.5605950988499995	13.096623201910713	-1.9144253909357147
O	2.4345783488499997	9.289477931910714	-10.043827050935715
O	0.8375478388500002	5.878939741910715	-9.526587400935714
O	3.8209565988499996	4.650444771910714	-6.111852980935715
O	3.8658406688499998	0.9466832819107143	-7.322661700935715
O	8.24899712885	2.169859861910714	-4.503568180935715
O	5.706300028849999	-0.04768705808928564	-2.959587300935715
O	7.64566996885	-3.057969328089286	-4.3478624709357145
O	10.51532504885	-1.8264571280892858	-2.0900283209357147
O	8.27128989885	-2.5343678780892858	0.8975746790642851
O	7.022086418849999	-5.9568260980892855	-0.4105799945357148
O	3.8918602388499997	-5.616155548089285	2.6184803590642853
O	5.1805591688499995	-2.986857588089286	5.165076489064285
O	2.5835606688499997	-0.25428632808928575	6.1591818990642855
O	2.6381033588500005	2.940750521910714	8.387977849064285
O	6.2058881788499995	3.9248104119107143	7.805987769064286
O	7.24820073885	0.29795940191071435	8.231505959064284
O	5.60676489885	-0.2673696780892856	11.627649149064284
O	3.0327564688499997	-2.748687798089286	10.327021849064286
O	-0.07136746114999992	-6.6309901180892865	6.062101729064286
O	-5.17709476115	-11.178137198089287	4.302914239064285
O	-5.51853472115	-8.785523198089287	1.3794639990642852
O	-6.444692341150001	-11.656203098089286	-0.9329912609357148
O	-9.155330371149999	-12.656167698089286	1.6188608590642852
O	-11.06741111115	-9.372476898089285	1.136115849064285
O	-11.417451751149999	-5.267526808089286	-2.9314270309357147
O	-9.459790321149999	-8.515294518089286	-2.705002030935715
O	-6.53219002115	-4.664041548089285	-5.703166730935715
O	-3.13950310115	-5.6704360980892865	-4.359157510935715
O	-2.40418011115	-9.083977298089286	-5.877317710935714
O	1.24065946885	-5.451135378089285	-7.366821920935715
O	2.66320065885	-8.398291258089285	-5.387172350935715
O	4.95453779885	-7.282978068089285	-10.117061320935715
O	6.94509849885	-6.663207928089285	-6.910301590935715
O	-2.19624842315	1.1892574749107143	-13.158378150935715
O	-11.89784635115	1.8385998309107143	-9.196228290935714
