84

O	-2.768779684547368	4.438161382150877	2.2320154718421055
O	6.485499575452632	0.1568649371508769	0.5705432518421059
O	-1.480330674547368	4.718448232150877	2.436387721842106
O	-2.914814284547368	3.1118216621508767	2.416497961842106
O	5.874076095452632	0.38635946115087694	-0.5910047511578942
O	5.7743112454526315	0.0931827091508769	1.7205701618421056
O	-0.4340071415473682	3.762294332150877	2.3049332218421057
O	-1.9153258545473681	2.176217702150877	2.4309642818421056
O	4.688658635452632	0.989420128150877	-0.6836182971578942
O	4.768105805452632	0.9699534911508769	1.742628031842106
O	-1.4849579045473682	3.247078822150877	-0.6035578989578942
O	-1.262756544547368	1.969352174150877	-0.1445223191578942
O	0.7181206764526318	3.706848212150877	-0.7121252041578943
O	0.11811385345263181	1.168303564550877	2.7073301918421055
O	2.568299865452632	-0.535692467849123	1.2973602418421057
O	-0.5528782905473681	4.1765682821508765	-0.8547843151578942
O	-0.6786774265473682	2.4937234721508768	2.681272551842106
O	4.280302135452632	1.352769291150877	0.5645254718421058
O	2.0068316554526318	1.6452933021508769	0.05870208784210573
O	1.8033570454526318	0.6579377521508769	1.0270285518421058
O	0.9459133594526318	2.432663012150877	-0.18569906115789425
O	-0.033407771747368184	1.661201311150877	0.34781908584210575
O	2.935140135452632	-1.1581367578491228	2.293067861842106
O	3.1118711154526317	-1.192429127849123	0.17321306384210577
O	3.340231725452632	2.780777962150877	0.5793459618421057
O	0.5436218484526318	0.9941858313508769	1.3550364118421059
O	-1.2246258445473681	5.813065222150877	-0.5699900768578943
O	0.6022601014526319	-9.484168357849121	9.477352951842105
O	-3.4580541845473682	-11.689945057849123	4.354856861842106
O	4.474544305452632	-8.878074847849124	-7.310741358157894
O	2.170134115452632	-2.951204737849123	-9.137946708157894
O	-0.31793706754736817	-2.020033267849123	-11.885106548157895
O	1.5702025754526319	0.7998553311508769	-13.658364548157895
O	6.158585585452632	0.1686840911508769	-9.871880268157895
O	8.822210565452632	-3.591662237849123	-7.625989078157894
O	10.508170885452632	-0.4532131778491231	-6.160440898157894
O	13.534526885452632	-2.689117447849123	-5.887193718157894
O	12.035798085452631	-5.708835167849123	-4.080667708157894
O	2.186734465452632	10.082075162150876	-6.904655308157894
O	4.512775575452632	11.816938642150877	-4.409640198157894
O	6.751250435452632	8.799080772150877	-4.113852338157894
O	3.750079255452632	6.586526642150877	-3.279029968157894
O	2.516903365452632	9.220159132150876	-0.7401192361578942
O	5.784441955452632	9.619662972150877	0.9571503918421058
O	5.9359720454526315	6.015541192150877	1.0940520418421058
O	2.838987915452632	5.557717062150877	2.839876491842106
O	3.9999194154526316	7.583099802150877	5.658773641842106
O	6.627457595452632	5.330349482150877	6.750206481842106
O	4.135502205452632	2.294546642150877	6.955266031842106
O	1.7319079554526318	4.565683552150877	8.644549311842106
O	4.1759999854526315	5.418130732150877	11.398156051842106
O	5.177183105452632	1.745667097150877	11.734260351842105
O	1.4840540854526318	0.861043906150877	12.117797451842105
O	1.0280329754526318	3.673052082150877	14.681328651842104
O	3.8182889454526316	1.950140524150877	16.73646155184211
O	-5.971289294547368	6.125300942150877	11.804256951842104
O	-5.149508164547369	1.633391060150877	10.608530451842105
O	-8.095151424547367	1.6773932341508768	8.096446801842106
O	-5.983160394547368	-2.310720287849123	6.091861301842106
O	-9.291710174547369	-3.596468167849123	4.777315061842106
O	-5.161668594547368	-6.503856877849123	3.141970101842106
O	-7.660469304547369	-5.3543914778491235	0.43591676084210573
O	-6.046873774547368	-3.7813231778491234	-4.841902398157894
O	-4.074268674547368	-3.8324986978491227	-1.6544194681578943
O	-1.2393339245473682	-5.818254557849123	-0.21038853115789424
O	1.7425050554526318	-3.9807577678491235	0.5391466818421058
O	5.1366381854526315	-4.559117727849123	2.1873321718421055
O	4.260658255452632	-7.193600287849123	4.553481441842106
O	2.2016753554526316	-8.836626517849123	1.8311953118421058
O	4.947091355452632	-9.210379857849123	-0.7773597771578942
O	3.381158775452632	-6.802639057849123	-3.2357888481578945
O	-0.043833899347368185	-5.967027267849123	-4.4603430581578944
O	-0.9360153635473681	-2.562436957849123	-5.755777798157894
O	-4.011922734547368	-2.492041277849123	-7.991449828157894
O	-6.834880514547368	-0.141930047849123	-7.083023278157894
O	-6.811564024547368	0.997744695550877	-10.707640948157895
O	-3.170450564547368	2.127960902150877	-10.540068048157895
O	-3.908726914547368	4.1994096721508765	-7.488126258157894
O	-2.6444137345473684	9.039315312150876	-9.915579118157895
O	-6.9501093845473685	5.234836472150877	-1.4710394681578942
O	-10.660544914547367	3.072603682150877	1.7601343518421058
O	-11.342660214547369	0.47092330715087694	-0.9682661351578943
O	-13.023404914547369	-2.201410257849123	2.722266491842106
O	-15.213699214547368	-4.055099527849123	0.21685869484210574
