38

O	3.303311122861403	21.206138799722304	26.172363974226784
O	7.9082818011417135	19.832048193214778	19.852906410822552
O	7.603481493838265	19.868093381850834	15.682928865811986
O	4.7978053785824315	23.681245957437586	19.219182224119294
O	5.954819716633972	23.984244701307418	19.857173007141956
O	4.8583648444527805	22.537042577142	18.407761616586107
O	6.048902091568289	20.57323704453068	24.381160689762087
O	4.399040645747973	19.01161472030156	24.42799157371079
O	6.306431014172974	20.003837931547885	23.137604053905562
O	4.811404075694519	18.30397111348701	23.3005860336079
O	3.5442009062307944	22.269749628646878	23.049516085941868
O	3.741075554246253	21.229620043027825	22.083155267121178
O	6.701676576752728	22.122040472326013	18.898194906928047
O	5.439201715811755	23.174854595523747	22.457572445946205
O	7.8755338124452265	22.68135251612583	20.586866708974107
O	6.3085645979572025	18.303945571813536	17.025939908294436
O	5.637845309924469	18.98356648772392	21.165900125586344
O	6.25849702568655	17.630998555844272	16.018663597254584
O	4.995210425356225	18.24656534980677	20.451376167377774
O	6.597059360561375	17.50129046581737	18.092360781907075
O	4.4523533753111835	20.424179496500095	26.22828337747098
O	5.960917485677145	20.47791762846056	17.446929483932294
O	3.5893596604663465	24.564752464699605	21.883349215280138
O	6.999325238164639	23.262733165132826	19.539075724529507
O	6.830794252390815	20.57575666694931	20.406982787276593
O	5.014253335703273	20.03956618971747	25.053812114023714
O	5.9259388548163425	21.812108961511065	17.893115802168737
O	4.074697848297724	23.386031078001402	22.527908234101904
O	5.37322025836545	19.241277028322788	22.62865539588351
O	6.9025563495195925	21.74384784153938	21.050468722195404
O	5.698735954361874	22.209965367448774	21.4141009974618
O	4.871797943543041	21.20926474994534	21.196435000065854
O	6.916576147062472	19.622620229900097	16.973853268957903
O	4.204069400766297	25.6548278125929	22.325238330769043
O	5.551464473156216	20.26374488121491	20.56371774562476
O	3.8966911626081546	26.88672154838102	22.203555134626058
O	5.500293922854111	25.42556544930897	22.535648246820013
O	3.65908174465628	25.428523175511582	23.611739167729993
