31

O	18.600460047121718	2.8578362000485966	36.51200969430874
O	12.010481316412193	4.179566611611859	37.4458904573317
O	16.143248964727654	0.44150808976196076	34.85671165382984
O	15.001265575745336	3.643531107613318	41.190309544954594
O	17.452104603073522	0.23809758859803498	34.39201588050404
O	14.439611016814093	3.3212661240241657	42.424178635739196
O	16.854955942251703	2.5871675555655385	35.01953569163038
O	13.228703305353928	2.139451607132025	40.56505946008634
O	19.70932344480074	-1.370691327682347	35.18371747269669
O	14.142032202978156	3.710185040214874	35.17082875652501
O	19.356007818772504	-2.7312532478861895	35.09239901411047
O	18.151605371048333	2.088236424662602	35.361995632898775
O	13.401660662770794	3.5584231846561107	37.445646362296074
O	15.81720788764219	1.642258729627451	35.32069893743942
O	12.39085508075101	2.604436908151894	41.59422320309521
O	14.569175948343265	2.598791032962433	40.37693911024202
O	14.104233960412547	4.077076860425752	38.54226975904966
O	19.736449713541734	-3.283895458810137	33.99166865635486
O	19.900320494236844	-3.567602798116557	36.08181959419564
O	19.09919317409885	-0.30585725019040133	35.858288624115445
O	14.081209376139581	1.9206293460714456	35.12801048270119
O	15.490329168550666	2.5434196047349142	37.56701523959321
O	18.354599573355962	0.7581767368507619	35.31254143732347
O	14.451254239862001	3.599456215904559	36.586239339083306
O	13.098433003886168	3.3404313067526403	42.50273189082557
O	14.985208558206295	3.155659384420895	39.02576637956589
O	12.599768893997483	3.0566582090411645	43.912256435941295
O	11.231676853756358	3.3304738722328278	41.38189241909157
O	13.208915729416072	3.997585946665176	44.645640401880456
O	11.318678478603438	3.599648753068363	43.76566779780077
O	12.305122382566818	1.8541749116672137	44.28562264562549
