16

O	1.9584246338031248	29.011083343690853	17.31632463980695
O	2.609149023968265	30.97540959831526	18.104460008077858
O	-0.17588615474484737	30.732143626736587	20.480787380136167
O	1.7948267206134867	29.059730474392765	18.654868237983536
O	-2.264968596028394	30.538873434261763	19.79494047281072
O	2.1556494981498435	30.38250644691136	19.19043870129536
O	5.167578309286553	29.173150542255502	15.65507851627548
O	1.9337756069900673	30.38751210807094	16.899748228816726
O	-0.9075974887049312	30.336951433160326	19.581360305657235
O	3.0217248496299827	28.381888575009732	16.500006362084022
O	0.7409283571417131	28.31075016870156	19.291159449251985
O	2.4091647318950318	31.066056363132954	15.796720686731915
O	-0.5734511113018184	28.964584105313158	19.337303976803412
O	3.7720751415971123	29.164435068718856	15.653831931119745
O	3.6499012357182545	30.676708114133383	15.874353399831751
O	5.616054255595923	28.51260944542883	16.93069207438018
