24

O	6.026250306933341	18.037697395488333	17.461101055152646
O	8.622527442548803	20.374507466320456	13.532732653244558
O	6.191408816417564	18.87541781106154	18.556511481456397
O	5.3739710790756705	18.361450761588767	16.30949648887758
O	7.501044653685227	19.996776897406537	14.274444292197586
O	8.620309398382195	21.73947430232976	13.248765262484666
O	5.98239811533054	20.191631168803532	18.2650004335096
O	4.569455645892258	19.486777733851284	16.443072106407847
O	7.062166945435575	20.946142094539365	15.149501173324158
O	8.337380515382673	22.55128286560544	14.342205459108838
O	5.858101222153445	24.867847814123902	17.033985769935637
O	6.697372223096714	23.446554045661895	18.667679391025917
O	6.8760963313191334	24.405635255219433	16.179674656297003
O	7.707369240194309	23.028640648791487	17.779984700475598
O	4.615836506457763	21.81014914535318	17.129581631323617
O	3.0562644746211145	21.70345064065786	18.93313613569462
O	4.846421485043417	20.396498851379082	17.46903230068194
O	5.6262936397667485	24.250280825912473	18.268768941527988
O	7.572103133456554	22.164341575366137	15.4030833236956
O	7.467217370602235	23.150654221094783	16.432336641486046
O	4.077472432681688	22.475623761319397	18.277985653570553
O	2.0544133713045083	21.834175090658725	18.16070100186636
O	3.524108818031154	20.457105936760257	19.377885363554338
O	4.3264469872134255	23.793345824047925	18.619895701655164
