77

O	-0.18273039935714253	6.240718125839286	-3.260703217180357
O	-0.6283514483571425	6.879657205839286	-4.207985917180357
O	-0.14075100935714246	4.8362072858392855	-2.9426094771803575
O	0.8320233206428573	7.005550575839286	-2.8090403871803575
O	-0.5169410833571425	4.402508945839285	-1.6088696671803573
O	-0.9504755023571425	2.1942125758392854	2.1791348728196427
O	0.4393754606428575	4.052251665839285	-0.5377046511803573
O	0.1808018106428575	3.0653050358392857	0.43636451181964264
O	-0.35590706935714245	2.0398849158392856	1.1589584128196426
O	0.7192963206428573	0.9895060088392855	1.4796077028196426
O	0.7073658706428574	0.3215380138392855	0.16241632981964269
O	0.5156079606428574	1.2595733553392854	-1.0010982611803572
O	-0.6920325473571426	1.1678633315192855	-1.5097115671803574
O	-1.9313704223571426	1.0632450898392856	-0.8450981711803573
O	-2.5670606093571426	-0.13827722416071442	-0.4991019341803573
O	-2.583692579357143	-0.4598690441607145	0.7779095928196427
O	-3.5504993593571426	0.5103782418392855	1.3123737828196427
O	-3.0747308393571426	0.9001063918392855	2.6089894828196427
O	-3.3240747393571426	-0.18246633416071445	3.6072870228196425
O	-2.0430930113571426	-0.4167252841607145	4.3141133928196425
O	-1.1420456963571426	-0.8742356541607144	3.2327486528196427
O	-10.145315259357142	-6.723368514160715	-5.541145737180357
O	-6.297387709357142	-11.532384854160716	-2.5603925971803574
O	-8.395802389357142	-2.1696892441607147	13.707958902819643
O	-0.6924526003571425	5.504737875839286	8.482067342819642
O	0.7880463006428575	7.788577735839286	5.847310552819643
O	-2.4616680443571424	9.817589755839284	5.672934012819643
O	-4.477192459357142	6.620811775839286	5.4206516128196425
O	-2.5077777093571427	5.459030455839286	2.5471777328196428
O	-3.552866949357143	8.516880495839285	0.6934486328196426
O	-7.127820319357142	7.936105375839285	0.5410884778196426
O	-6.661379379357143	4.425033165839285	-0.8515518221803573
O	-4.262927709357142	5.6714150958392855	-3.265459287180357
O	-6.483886899357143	8.261532735839285	-4.814086137180357
O	-9.134851449357143	5.568062755839286	-5.044730687180357
O	-6.610871359357143	3.342635765839286	-6.908511967180357
O	-5.709290179357143	6.217871715839285	-9.250391647180358
O	-9.425159909357143	6.432627845839286	-10.158956627180357
O	-9.528076349357143	2.6588097658392855	-10.799172397180357
O	-0.15103123935714247	5.301815585839286	-12.342898597180357
O	2.1453674406428576	4.530382775839286	-9.373603617180358
O	4.049899610642857	1.9050659968392853	-11.298997197180357
O	-0.3548820193571425	0.7648240278392855	-8.055505097180356
O	2.8904473906428576	-1.0512926241607146	-6.910195397180357
O	-1.0801262343571425	-4.5313613641607144	-8.160879537180357
O	-0.0675582693571426	-4.124557534160714	-4.6498745571803575
O	2.3130775706428572	-7.041257094160714	-4.908262087180358
O	-0.9396695513571426	-9.007013454160715	-5.451160047180357
O	-1.9508242753571425	-8.061808814160715	-1.8715864471803574
O	1.5053561206428576	-8.738877774160715	-0.34061486918035727
O	0.01671868064285742	-6.405892424160714	3.0709418228196426
O	-3.748555059357143	-6.5916027241607145	2.804200172819643
O	-5.634009309357142	-3.4691415241607144	3.581917762819643
O	-9.249927039357143	-2.0476467541607146	3.4424921928196426
O	-10.379473639357142	-4.168326674160714	0.5929182258196427
O	-8.667600579357142	-7.187931104160714	2.1405133828196425
O	-10.258785669357142	-6.930942504160714	5.600783272819642
O	-7.0006936193571425	-6.095665564160714	7.379189262819643
O	-0.5451742563571426	-5.082376514160714	8.182834622819643
O	5.065627770642857	-3.1026553541607145	11.911781302819643
O	5.690893140642857	-0.8800818541607145	8.901054432819643
O	9.429951580642857	-1.3296954441607147	9.272373912819642
O	9.056408180642858	-0.2571533741607146	12.956082702819643
O	7.828411670642857	3.2364178958392857	11.995233702819643
O	8.200645480642859	6.673075465839286	7.375421542819643
O	9.520380780642858	3.204950855839286	8.101359022819643
O	8.413705870642858	3.6276197758392854	2.611060082819643
O	7.045335270642858	0.09250464583928553	2.2296742028196426
O	10.128124380642857	-2.085414244160715	2.4760067928196428
O	7.758120630642858	-2.632862424160715	-2.2916313171803573
O	7.8523287206428565	-5.8194172241607145	-0.2196796193803573
O	11.302976280642858	-6.549869574160715	-1.6742085671803573
O	9.890731880642859	-6.103093454160715	-5.204401637180357
O	6.650544230642857	-7.986217534160715	-4.418819127180357
O	8.647073380642858	5.055097505839285	-7.819414557180357
O	9.146171380642858	6.7281921458392855	-3.0663522271803574
O	8.166693690642859	12.365928545839285	-0.2859922738803573
