44

O	4.906359398366799	19.533393539841867	23.43707607450913
O	7.303037423445605	22.176823887725504	13.435583630450916
O	7.357089913934406	23.502346914022162	13.737312809651533
O	4.759412246112076	25.638399869660457	15.476390305630819
O	3.4180819814990544	18.04053556936853	14.698268417486787
O	4.4752930630739645	24.356291645135144	15.115391112671965
O	6.034900002078725	25.69268779223097	15.895645753815494
O	4.439292823956853	18.261401065646943	15.623727043695904
O	3.7682916744997654	17.861755372504568	13.41511339673757
O	4.402479153951316	24.734196952724023	18.975351435561265
O	3.6417226300086174	23.349375773615698	20.31763744657215
O	7.619734273243504	21.27361789105495	14.394441800837182
O	3.370586483208357	24.264130988669418	18.097888286611713
O	2.7875276115788488	22.73440120169365	19.383408486593236
O	7.824752369341771	23.832033403165767	15.008898731217075
O	5.769301396058232	23.404815356686605	16.52669180272172
O	5.450293056142758	19.35826290105504	13.838933395402007
O	4.497547163431739	21.960707005917786	14.888862552910318
O	4.411227997654397	21.444276680593212	22.245945538715805
O	4.327916741169129	19.55857913621393	21.047337830247177
O	4.955527698495902	21.907335127577262	21.051733687918258
O	4.741920268781504	20.27766889554667	19.852337521773023
O	3.4715192639076804	20.638908872462565	17.462548086457222
O	6.222826276102857	19.244840455149873	17.36789337622687
O	4.0766393345322	18.300380177478655	10.73939601391733
O	5.428578118673396	19.947074493393067	11.263707679133583
O	7.52716815123465	24.672600792588327	17.589032687879993
O	5.88282032078834	22.51745260949526	19.304646637996647
O	3.682403271780216	21.815120854778577	17.222012221996952
O	6.080576943051006	19.704894507722365	16.222765986751615
O	4.91248418824191	23.167426418580444	15.497123483808787
O	4.876187496997036	23.63028980009556	19.616493582227463
O	6.383525776327499	24.677428211221095	16.69741676962533
O	3.056336841655388	22.874743981809452	18.064252932046692
O	5.502602911095135	18.89939497365158	15.168684465267997
O	4.82239396514591	18.585133645625348	12.930248018439064
O	7.618333646985777	21.509794327830864	15.795673021329224
O	7.779673701454959	22.83347095349184	15.981280933640871
O	3.7000120048218035	21.457714877561074	15.881321801348157
O	6.73585676550387	20.813442087137908	16.6347854032253
O	4.9040042293894235	20.104654774695607	22.174420653224654
O	5.644945437475478	21.31061897616594	19.906521861748807
O	4.506776003417175	19.237313348052776	11.677561540378738
O	8.033727426911982	23.33853285179858	17.26877732009619
