31

O	7.077701967532771	23.55110146214472	15.904905725954485
O	7.160953890265118	24.308412817375245	14.818275408775957
O	7.868162353105949	25.337528735795143	15.159743260999266
O	7.851068553838689	24.151173114142765	16.820770413692923
O	4.691651901542584	26.326523458713247	18.283613475451922
O	3.381086964913712	26.811289567530064	18.380518764137697
O	7.8800340784824865	25.410707886766456	16.427516832400855
O	2.8886731430283206	27.002492965723846	19.666359851201687
O	3.5657977163885715	28.080400425203873	17.28098915088572
O	-0.347781063938176	28.999208193483145	19.76380311160287
O	1.5004491197146113	27.407016171787358	19.75098150623582
O	5.017781152121779	27.3204838805701	16.386719141565575
O	5.424543294955989	26.075304174333276	19.44629586170644
O	1.084786303650894	28.788847723566153	19.417916179859567
O	4.856664857865238	26.10759372686655	16.947670746384983
O	7.603536501489652	23.613629411910786	13.569862364591101
O	3.3641764859675516	26.106284568551832	20.621981167046744
O	-1.1926729024896314	28.58372293311086	19.01598027245454
O	4.562780500067765	25.45547280491397	20.344843904581023
O	7.9585071776611525	23.864551303330252	18.292541537550385
O	-0.9530899624890772	29.72801512538358	20.695728631698785
O	6.680764806038772	25.548711665187295	19.231242180405598
O	6.548487478471741	24.320588316075405	18.631360173190163
O	1.6302198107096837	29.450186586063523	20.500671099684162
O	8.098048957240463	26.599724727115472	17.246865264234387
O	8.118062413712776	24.485957968065875	12.675188183034766
O	6.730585250039135	22.682079480173638	13.15048421963159
O	2.972921034650396	29.17761923362334	20.550345979387608
O	8.24387951235465	24.24890125450563	11.342867681536152
O	6.730850594151617	22.451934032772254	11.802845813266789
O	7.645865899364617	23.073547262542156	11.051061483772433
