26

O	7.98477396005149	24.543483538050666	14.924860480960056
O	6.791318268145307	25.119879913886184	15.176967576692933
O	8.823007283414736	24.222797486484136	15.910134807719917
O	3.8352945182670526	27.032922009102236	17.41491731775819
O	4.995230066012221	27.742658942841008	17.435762961783844
O	6.637132063270429	25.357220717289376	16.48486361119555
O	8.606038411861487	24.6022830795715	17.18542854163459
O	3.0812240438542706	27.21162852768445	18.653702293667937
O	6.96786133261164	22.276720851008623	19.040318327533864
O	7.215096126709293	21.99888460221922	17.800497144048336
O	5.659039842069485	27.50452479994225	18.65090552379519
O	5.339484445639936	23.02611533616069	17.316102802040035
O	7.235412865159849	25.343554645110284	18.955636767242922
O	4.110494298212347	24.162362884025566	19.43604724768735
O	7.416254359433204	25.224992982541178	17.555056534586992
O	5.636519442863274	22.6705196247071	19.4967645491369
O	6.336562776641601	22.253433530663106	16.805439431497213
O	3.790766943630793	26.506598150021766	19.655143443657206
O	5.141999476312152	26.59734545426157	19.620255673126298
O	4.836521122639613	23.345700557697842	18.52950023142056
O	3.2167588425652096	25.193221391552438	19.62910465706011
O	4.062568852997326	24.063324721920313	20.72198203557645
O	6.693101484029238	21.923480636581843	14.302059615913588
O	8.046563432313139	21.260160245833568	15.517348954892352
O	6.096660283285377	25.540833179003805	19.72420778719385
O	6.860539095956783	21.730866638468733	15.63081379386838
