72

O	7.513979910533333	1.929879028866667	-2.309919587844444
O	6.881354980533333	1.513727343866667	-4.047429380844444
O	5.532905390533333	4.095745023866667	-5.545605700844444
O	4.260718140533333	4.562168943866666	-5.361849940844444
O	5.360438490533332	2.919835573866667	-6.168051280844444
O	3.570299590533333	3.912382223866667	-1.7571478128444442
O	4.801026350533332	4.218074833866667	-2.194623584844444
O	3.1668391705333327	3.731206523866667	-5.041534540844444
O	4.294427270533333	2.084482566866667	-5.767205420844444
O	3.043643920533333	2.671537503866667	-1.9274452558444441
O	5.324989580533333	3.091432563866667	-2.722078009844444
O	0.9600978099333328	-0.046255676133333035	-1.1278785478444442
O	2.3990989105333327	-1.553024616133333	-1.5068799588444441
O	2.070444260533333	0.6177518718666669	-0.48873775084444415
O	3.370103000533333	-0.8477777061333329	-0.7571262608444442
O	1.9588228235333327	1.784908385866667	-4.595823450844444
O	3.1261840805333327	-0.04788625613333308	-4.600890930844444
O	3.224244380533333	2.369843673866667	-5.0356880708444445
O	1.3382571845333329	-0.906484416133333	-2.173798610844444
O	3.406842240533333	0.494602257866667	-1.019847542844444
O	3.8646504205333327	1.568471773866667	-1.7956568248444442
O	4.987690750533333	1.829094207866667	-2.458504290844444
O	6.180021520533333	1.090687115866667	-2.668787268844444
O	3.6506263805333328	-0.615387716133333	-3.728530880844444
O	4.206639920533332	0.33042075686666694	-5.127848930844444
O	1.136538423533333	-0.44767278613333295	-3.5051974308444445
O	1.8623188565333328	0.40366309886666696	-4.266748910844444
O	-3.562862399466667	7.013825253866667	4.363999189155556
O	-9.421233509466667	7.8223772838666665	3.713712109155556
O	-5.8577253394666675	11.134022803866667	2.1412808791555564
O	-5.164067599466668	8.409098033866666	-0.40489097084444414
O	-2.565893879466667	13.142116783866667	-1.591376243844444
O	-0.3806654394666671	10.111540053866667	-0.7796129008444441
O	-0.5556936494666671	8.263680133866668	-4.324601170844444
O	1.3552970545333327	11.586873383866667	-5.267293760844444
O	4.356168890533333	10.831415193866667	-2.6900033328444444
O	-10.426465109466669	3.164525843866667	-5.090273160844444
O	-10.365278509466666	-0.535424346133333	-4.182991080844444
O	-9.087094909466668	-1.6421505561333332	-7.595516140844444
O	-6.271130969466667	0.874668369866667	-7.533022520844444
O	-5.019631449466667	-0.27265843613333307	-4.144508540844444
O	-5.290454399466667	-3.8579841161333333	-5.243770650844444
O	-3.378589959466667	-3.2061905361333327	-8.475372510844444
O	-0.8986795794666671	-1.720662706133333	-6.2934260508444435
O	-0.5898647494666671	-4.611695596133333	-3.9270423608444442
O	0.16463358653333282	-6.857646736133333	-6.892132590844444
O	3.213601100533333	-5.238781416133333	-7.966139110844444
O	4.619088280533333	-5.516202306133333	-4.5014710708444445
O	3.415878180533333	-8.936669416133332	-4.070765730844444
O	5.167216450533333	-10.349428916133332	-7.143408050844444
O	8.366634100533332	-8.602745806133333	-5.999202460844444
O	8.078057510533334	-10.230514516133333	-2.597432737844444
O	7.475657260533333	-13.618600716133333	-4.350686710844444
O	10.866572470533331	-13.166233616133333	-6.052572280844444
O	3.9656499005333328	-8.320956526133333	6.007434069155556
O	5.112235340533333	-4.126968176133333	8.699124939155555
O	1.7582232805333329	-4.247803076133333	10.560851839155555
O	-2.266306249466667	-0.3970830661333331	9.701742339155555
O	0.45124223153333287	-1.442190946133333	7.3520544091555555
O	3.581231430533333	0.21387972386666698	6.242042329155557
O	3.836182490533333	0.6439020878666669	2.654308549155556
O	6.789103500533333	1.1803410898666669	0.6399112391555557
O	9.743668380533332	0.31443492386666705	2.8584238991555564
O	8.028351190533332	2.199854187866667	5.689057369155556
O	7.365545800533333	5.749063253866667	4.326554979155556
O	3.577382540533333	5.424789443866667	4.173140839155556
O	1.114564715533333	3.845922473866667	6.386408859155556
O	-2.305124149466667	2.655025763866667	5.445456779155556
O	-4.697034549466667	2.1998162618666672	8.076680839155555
O	-6.4000836594666675	-1.1030435361333328	8.649682239155554
O	-9.316108309466667	2.297001291866667	5.493754099155556
O	-8.582197319466665	-1.0765385761333328	3.941890349155556
