28

O	5.747912873610459	18.21523502636262	14.944413711339942
O	5.906784081134504	18.493021128075235	13.630944759590287
O	4.991737735005702	19.122464019590527	15.576802142796728
O	6.397860117512261	19.70912345978885	13.350028651786984
O	5.287520909762002	20.414980265457462	15.25645951373337
O	4.029734190730384	25.693697414395785	16.976274731466557
O	5.068535525039892	26.420495783792614	18.77323967273724
O	7.193634913770948	26.384217647074408	16.255402477348714
O	4.6449521338564805	24.431318436680236	17.142324892076964
O	5.584766312870709	25.18722179487221	18.834644415737348
O	7.622098852682428	25.32282052899269	17.010190363324256
O	6.323419791771379	25.093413388795007	14.577508298933468
O	6.155202070312661	22.783533765329018	18.31968116368213
O	7.596008049782245	20.55795163817456	16.45725880513368
O	4.2792059853816005	26.75743414051294	17.768588479965075
O	6.5280604048765385	26.340914512306284	15.08486551274879
O	5.347042756271962	24.07493538357751	18.258627047927007
O	6.034603310474368	20.676201226760003	14.181419491141758
O	7.122987476225159	22.706057110589384	15.109507994504748
O	6.986159683064868	21.888598609336906	16.24445908230617
O	6.754337994847059	23.999880566934916	15.320436916491197
O	7.337187589257578	19.698527387786754	17.305864570834377
O	8.38104951617156	19.98741420722874	15.449392751700872
O	6.751346615832283	22.138418425819452	13.555713156981067
O	7.235519996265568	24.084114602028016	16.596850935869345
O	6.900346574275592	22.87969605850046	17.120937874337212
O	3.5925683231634578	28.33982792464751	17.80032304478323
O	5.528350066201321	27.81795941086402	14.904600644918027
