28

O	7.692861941739977	25.940507264677407	13.934932040670905
O	7.240371518108021	26.61579885868174	12.835744555038357
O	6.845547441678564	28.030890177892903	13.83221289097815
O	6.320113304205216	27.12229945757983	15.14616736276004
O	7.223217840183985	26.1215560493752	15.183573889240595
O	5.311830860943138	27.05966892124107	16.29394028591539
O	4.824625211795575	28.337698561029754	16.452005029229277
O	3.4874547444750092	28.28239017595943	16.571805593122857
O	3.6595715122218064	27.97589889396966	17.844984516940364
O	4.751635265613711	27.121960925561304	17.723297565075683
O	3.0739572848929244	27.910186427578942	15.212062280488274
O	3.1282351679093177	28.81765269476266	14.056058087499082
O	3.0883564631932305	28.699600483803366	12.699104253894392
O	4.032245203442002	27.840257986630977	12.2742283767592
O	3.9737066118272897	26.680851876554716	12.953212698131825
O	3.3943249396275625	26.965227220693446	14.152393913453853
O	3.1774244404597844	27.261792276196207	18.8593623638762
O	2.8393730458168474	27.833268589757676	20.28171271017326
O	3.18205851999248	26.78664751826479	21.13080360119035
O	2.2794193014050457	28.58411235928113	21.318327333327026
O	1.313877244158311	28.33659977256944	19.595080053640867
O	1.4987384767622187	29.108229658733535	18.40448189156371
O	0.652803649491184	29.001717047130114	17.229871079678635
O	0.715807106656603	27.65484820573342	16.640859540703943
O	0.2296159613939195	27.048122742457032	17.966700845974422
O	0.8612408732749932	27.151516821636477	19.361644671094993
O	4.878398497498987	28.00263490440262	11.187012541030029
O	1.0475389405128528	29.65903635507958	15.959147213128926
