92

O	2.7928934037462683	-2.932280687074627	1.0441276310343282
O	3.127762763746268	3.525688232925373	-1.8318275749656718
O	3.3198122237462684	-1.172041317074627	-1.1373882039656718
O	1.3583049237462683	2.377988402925373	-3.055064238965672
O	0.8933261437462683	2.732310292925373	-0.9103450262656718
O	1.7707075837462685	1.051314132925373	1.7620376110343283
O	1.4004315037462685	1.0010897499253728	-2.7612819589656716
O	0.28952327974626835	1.5255014449253728	-0.8546782832656719
O	1.1866512037462684	-0.1587274100746271	1.803099251034328
O	3.2382062337462685	0.8458445018253729	0.1468003710343282
O	0.038557952746268276	-0.6364411670746272	-2.1605049789656716
O	1.6767513737462685	3.134088142925373	-1.9283677689656717
O	2.903563323746268	1.5503493739253729	1.317302721034328
O	0.5724997037462682	0.5877183549253729	-1.715020187965672
O	2.6923708237462685	-0.42721019707462704	-0.0796080319656719
O	1.7657542937462685	-0.9199941370746271	0.7803805210343282
O	1.6529026137462681	-1.704099927074627	-3.9839749489656717
O	1.3321750337462683	-2.289090517074627	-1.6732457269656718
O	2.7591078237462683	-2.397840557074627	-1.617061289965672
O	1.0791648637462683	-1.4499272370746268	-2.728481848965672
O	1.8567765337462685	-0.761399547074627	-4.754232128965672
O	0.5370286537462683	-3.152453697074627	-1.268459252965672
O	1.6191853837462684	-2.230242077074627	1.062458581034328
O	3.024446843746268	-2.750275737074627	-3.408968808965672
O	3.755125053746268	2.775684932925373	2.446685301034328
O	-1.5212402752537315	10.743946742925374	-10.481465768965673
O	-1.9006894262537317	12.360500032925373	-5.1923744989656715
O	-6.265563246253732	15.286141232925374	-1.5365626359656719
O	-5.923950796253731	12.022870632925374	0.40070277103432805
O	4.077555133746268	4.798871432925373	12.16518829103433
O	9.82841885374627	8.210394852925374	10.258343391034327
O	8.821241763746269	-2.444573557074627	4.7897838110343285
O	8.38106252374627	-5.005008527074628	1.9205399010343283
O	11.359102053746268	-3.5627686570746273	0.017162657034328177
O	10.016033253746269	-0.05820114807462706	0.5622666810343282
O	6.738342723746268	-0.9995085470746271	-0.9235610572656718
O	8.25704419374627	-2.108871097074627	-4.0864858789656715
O	9.844395853746269	1.2127659949253728	-4.907715178965672
O	6.535362243746269	2.838489222925373	-4.695991168965672
O	4.817258743746269	-0.020760808074627102	-6.497397268965672
O	7.114441263746269	0.4961655109253729	-9.491515418965673
O	6.576988623746269	4.286874462925373	-9.387540728965671
O	2.802903323746268	3.620815922925373	-9.442902468965674
O	3.2332156137462684	1.169840927925373	-12.352264208965671
O	4.854312613746268	4.084552302925373	-14.280450508965671
O	1.9320557337462683	6.398163162925373	-13.384115308965672
O	-1.6378825762537317	-2.862505817074627	-13.116215008965671
O	-1.8758542962537317	-4.279356457074628	-9.559623458965671
O	-5.686546736253732	-4.287899257074628	-9.74650161896567
O	-2.701698936253732	-0.06378119707462704	-7.634231758965671
O	-5.128512646253732	-1.655777687074627	-5.090793338965672
O	-8.050678626253731	0.3941398239253729	-6.313988238965671
O	-6.077048066253731	3.630854262925373	-5.815674748965672
O	-4.643490936253732	2.579540972925373	-2.613062888965672
O	-8.007613656253731	2.3062784329253727	-1.0774889199656719
O	-8.145192446253732	6.120182152925373	-1.6990660389656718
O	-5.3054831362537325	6.4740899729253725	0.8477235010343283
O	-6.7368260162537315	3.973635522925373	3.368904861034328
O	-4.213922176253732	2.621445542925373	8.32213273103433
O	-2.7051838162537316	3.901328702925373	5.087484461034328
O	-1.0895072832537318	7.153925252925372	3.928261631034328
O	2.5410737437462685	6.668043392925372	2.753156331034328
O	5.265979883746269	8.792140772925373	1.095565701034328
O	3.0103298037462682	11.156711432925373	-0.8077701289656718
O	0.6900507937462683	11.499677532925373	2.201473241034328
O	3.3960507637462682	12.574526232925374	4.655474621034328
O	3.1700749037462685	9.442553662925373	6.781046911034328
O	0.3437192027462683	7.237739322925372	8.11272468103433
O	1.0602502637462683	3.538124702925373	8.82398344103433
O	-3.2567778862537318	-1.294924967074627	9.984515891034327
O	1.4092213437462684	-2.235428507074627	12.825913091034327
O	1.2226811937462683	-3.9951299570746266	9.483469791034327
O	-0.7978445982537317	-6.804226577074627	10.980416891034327
O	1.9548916337462683	-7.1234648570746275	13.651716091034327
O	4.6027007737462675	-8.133387957074627	11.111902191034329
O	4.620127993746268	-10.401928867074627	5.786813441034329
O	1.8269984337462684	-9.496808667074626	8.196133221034327
O	0.004315367746268284	-8.894318327074627	2.9135567610343283
O	-1.9499954962537316	-5.635569237074628	3.5632555410343283
O	-4.945144456253733	-6.903548667074627	5.523719451034328
O	-7.013053786253732	-8.123442827074626	2.488496251034328
O	-6.444387726253732	-4.672001537074627	0.9249424010343281
O	-7.7191037062537315	-2.899076257074627	4.011868461034328
O	-10.754807946253731	-5.274572597074627	4.034593901034328
O	-11.43711174625373	-4.387935487074627	0.37409818103432824
O	-10.706372846253732	-0.667826377074627	0.8878005710343282
O	-6.897672596253731	-9.583233267074627	-3.985136368965672
O	-4.123678516253731	-9.847781267074627	-6.635998158965672
O	-0.8823032822537317	-11.265688467074627	-3.050652398965672
O	0.7783237837462684	-13.371936867074627	-5.783522388965672
O	4.979825333746268	-13.655945267074626	-3.111908658965672
O	8.478789953746269	-15.578140567074625	-0.13315551796567182
