22

O	4.592750398663477	29.591603236314107	18.97896127943079
O	-1.0315138453627832	28.847496436332136	21.88975066421677
O	5.206745367686085	29.782769079297662	20.326877278785414
O	-1.87004606139222	27.035725675897723	21.53575940997813
O	6.34720101342746	28.8229580903839	20.36658454994891
O	6.140835170763572	27.56488050209659	19.5289308137169
O	4.693861499258183	27.40045933358546	19.366426074862346
O	4.057324568250053	28.267507294657598	18.63505397016659
O	2.588293531091753	28.40084050338795	18.5472071178517
O	2.141197449990991	28.78580413710245	19.662247345082246
O	1.6347385318847079	29.900384591117792	20.417821724930874
O	2.2460970121238937	30.103662086191296	21.532740712432616
O	2.8298414881447935	28.854521076009124	22.126422556431535
O	2.758017579181732	27.627620206756554	21.690473509813796
O	1.6434489186375196	26.66722447202699	21.470374098142532
O	0.49150066198411535	27.089128577216457	22.02055351461134
O	-0.6789219561880029	27.708137556463107	21.442750932407066
O	5.824112659482349	29.74155780650516	18.178752008945537
O	3.78255775498932	30.826647264913817	18.823407142374162
O	4.11460428811056	25.985524998552975	18.943555183191602
O	0.531163640202116	30.19019488016537	19.580883663734525
O	1.2672873946914067	25.993331341486062	20.229903377035317
