93

O	3.0508560381269834	-4.981035325953968	1.9114869308206344
O	2.5344497381269835	-3.796222555953968	2.5492917808206346
O	2.6983128381269834	-2.401182195953968	2.5849166408206345
O	2.3961383981269835	-1.2007026659539681	3.4861490408206346
O	1.1393253981269833	-3.937845675953968	1.9842316308206347
O	0.3343838091269834	-2.6720043759539682	1.9070333508206345
O	0.6454381381269834	-1.3748965559539683	2.0473248308206347
O	-0.3226775839730166	-0.46714275595396804	1.6250374008206347
O	-0.11632092387301662	-0.4489697659539682	0.22739335282063466
O	-0.5648988098730167	-1.7753442659539682	-0.16872075417936533
O	-0.43579398087301663	-2.818309965953968	0.7776003708206346
O	-0.5786561258730166	0.8151417528460319	2.3523155408206344
O	1.9049151481269833	1.2782333750460317	2.8949172708206348
O	3.0768643381269833	1.835602944046032	2.1187211908206347
O	2.8597123781269835	3.163820704046032	2.2892948908206345
O	3.6560132781269834	4.149293564046031	1.5365863408206346
O	3.990216098126983	3.9348687340460318	0.23673065682063466
O	3.3686713681269835	2.746928934046032	-0.1730175671793653
O	2.9626093381269833	1.6068020130460319	0.7336041508206347
O	5.174651128126984	4.654068584046032	-0.23129763517936533
O	-0.7848043528730166	0.49498987704603187	-1.8937819691793654
O	2.9150870081269837	-5.424684355953968	0.7275575308206347
O	3.4790468981269833	-6.0681021759539675	2.6372606808206345
O	0.7404455341269834	1.2562392240460318	2.0436093508206348
O	1.3080602881269834	1.9862770340460318	3.8111485508206346
O	-0.9656880248730166	0.43927473004603185	-0.5049331163793653
O	1.7560837881269833	3.887337504046032	2.7755626508206346
O	5.983487108126983	5.130173814046032	0.8212880208206347
O	6.115132768126983	4.384727874046032	-1.1183750421793652
O	4.981089548126984	5.901732324046032	-0.8418378261793653
O	-0.9780563388730166	15.122293954046032	-1.8156121591793655
O	0.6604604271269834	12.579377854046033	-4.1291491891793655
O	-0.9302932628730166	11.903675654046033	-7.520587249179365
O	15.789363238126983	0.38896372004603186	-0.1067891521793653
O	4.918122788126984	0.9357114810460319	-9.990557529179366
O	7.671587738126983	-1.1704505659539683	-8.298720639179365
O	8.986571408126983	1.6539485530460318	-6.196978669179366
O	5.486076308126983	1.791712053046032	-4.692808989179365
O	5.324496168126983	-1.9287182659539681	-4.128472929179365
O	8.621443258126982	-1.7664469359539683	-2.2180163591793653
O	7.543395958126983	0.8642317361460319	-0.0023080851793653157
O	4.598230708126984	-0.9567789959539681	0.6697879308206346
O	6.9667463981269835	-3.607486885953968	2.094673020820635
O	8.940167708126983	-1.6977600659539682	4.4393362308206346
O	5.746805448126984	-0.35196404595396813	5.868631030820635
O	4.406697828126983	-3.728689855953968	6.941692430820635
O	7.796884798126983	-4.621780915953968	8.179721760820634
O	7.416431868126984	-1.837410755953968	10.817073380820634
O	3.7475653081269837	-2.7509728359539682	11.388343580820635
O	4.721328638126984	-6.391914375953968	12.032513480820635
O	4.686620768126984	-2.913929965953968	16.417758180820638
O	-2.0156985718730165	-9.024864225953968	7.407213140820635
O	-2.6540840818730165	-4.534280875953968	8.851703690820635
O	-5.585741491873017	-4.156219015953969	6.439403830820635
O	-5.638784821873016	-0.6064132059539682	10.497669780820635
O	-5.098038911873016	0.6381096140460318	6.920574800820635
O	-8.839260071873017	1.473390330046032	6.761571850820634
O	-8.164418511873016	3.397363944046032	9.948274680820635
O	-5.901282431873017	5.711809584046032	7.908968910820635
O	-7.755222931873017	5.8226290840460315	4.573455310820634
O	-6.691596041873017	8.181497824046032	-0.6410354311793653
O	-4.562918861873016	7.102177014046031	2.3085470308206344
O	-2.1854107018730167	8.827470774046033	4.6682278208206345
O	1.4107312981269833	8.151520914046031	4.527995030820635
O	4.613877918126984	8.812426844046032	6.4944140908206345
O	-1.6245693418730167	11.802171154046032	1.1808387308206347
O	-1.4640865318730167	9.314410174046031	-1.6155071791793651
O	-4.478860211873016	9.248272024046033	-3.9448723591793655
O	-6.449494581873016	6.099793624046033	-4.883004179179365
O	-2.5956836918730164	7.623842474046032	-8.640066769179365
O	-2.6380514318730164	4.227742134046032	-6.887781419179365
O	-4.671021621873017	2.496803854046032	-9.512915929179366
O	-2.5670215618730166	3.8795641640460317	-12.412312719179365
O	0.3962350991269834	1.639281146046032	-11.548227319179366
O	0.9099891281269835	-1.4055694359539683	-13.834234319179366
O	0.6279176141269834	-4.063166825953967	-8.663102229179366
O	-2.6333919218730166	-2.131140935953968	-8.985521759179365
O	-4.278817261873017	-5.541325075953969	-8.618449939179365
O	-3.5003736118730164	-5.732686285953967	-4.922544189179366
O	-4.221310681873017	-2.093238905953968	-3.9996752691793653
O	-7.844605561873016	-1.6441866659539683	-4.701056369179366
O	-9.382201621873017	-4.703833625953967	-2.9439921291793656
O	-8.179445201873017	-3.055520885953968	0.23392967182063473
O	-9.728857381873018	0.30821751704603184	-0.5109515988793654
O	-12.722347661873018	-3.057908695953968	2.2990476008206344
O	-11.393839861873017	0.01921727504603188	3.9643708108206344
O	-5.350707421873016	-11.676671645953968	2.8694750808206346
O	-3.7825682018730165	-10.772016145953968	-1.1916097711793654
O	10.969876138126983	-7.374021155953967	-8.377841369179365
O	12.536395038126983	-8.204975655953968	-5.002794329179365
O	10.388238638126982	-9.374513445953967	-2.0805891191793653
O	7.196320228126983	-11.025964345953968	3.636261670820635
O	3.4294845381269834	-16.114804945953967	2.6766120808206346
