79

O	-2.0316057670314818	4.1594448784259255	-0.5234060548462962
O	0.0228163519685185	-2.1880319415740743	0.8433183691537036
O	-1.4692730700314816	2.2777464084259256	-1.9715276678462963
O	0.6065072219685184	-1.2546708415740744	-0.05840278484629624
O	2.1357349119685187	6.252176798425925	-1.4707965578462963
O	-0.7103023650314815	6.979615728425925	-2.437482060846296
O	0.49897205196851857	0.1046252124259256	0.2594087091537036
O	2.1367282919685184	7.481423148425925	-1.7198409488462962
O	-0.5638303210314816	7.416841368425926	-0.41369308284629625
O	0.7023287719685185	1.4916874904259254	0.10927763915370381
O	1.8142376819685186	8.691547088425926	-1.8331587518462964
O	1.1046094419685184	2.8206908484259254	-0.3123640498462963
O	1.5446042319685185	3.5862127984259256	-1.5905278208462963
O	1.8101359619685187	4.987183018425926	-1.8518471298462962
O	-0.9169217970314816	-3.243826441574074	0.6899348491537036
O	-0.7166673860314816	-4.386590101574074	-0.23882039384629627
O	-1.8342838470314815	-4.415907241574075	-1.2360111318462963
O	-2.1339070180314814	-3.013248651574074	-1.6505613398462962
O	-2.489345078031482	-2.1272248815740746	-0.5669431298462964
O	-2.6886117480314815	-0.7420307715740744	-0.4831910548462963
O	-1.9739993300314815	0.15743378942592556	-1.0126073359172962
O	-2.1619129380314814	1.6914051264259256	-0.9829699551462963
O	-2.2200792780314815	2.9424893584259255	-0.17599881284629626
O	-1.1863335719314816	5.291512318425925	-0.5037190918462963
O	-1.1038043737314815	6.511451388425925	-1.1765947318462964
O	2.5107357119685183	-12.692274301574074	2.090823389153704
O	-1.1046270243314815	-14.048080401574074	-1.1411650168462963
O	1.2309141019685186	-12.267684901574073	-3.5341783308462964
O	-0.08323681803148153	-14.794090101574074	-6.009246710846297
O	9.032754911968519	-3.9055525215740743	2.7727884191537036
O	9.878548311968519	-2.6048422315740742	-0.7514145028462963
O	7.378605591968519	-4.968225951574075	-2.4650699708462964
O	4.6608263419685185	-3.812554311574074	-0.19202643784629625
O	5.786690161968518	-0.16209446157407448	-0.9362010191462963
O	5.711212321968518	-0.7628799315740744	-4.708144030846296
O	2.408227281968519	-2.7306285115740745	-4.552956690846296
O	0.8873301319685185	-0.22916188157407436	-3.458030900846296
O	1.5341844219685183	2.6022541984259258	-5.663717830846296
O	-0.4515134140314815	0.7516964794259255	-8.205803320846297
O	-3.6882526380314813	0.8035345844259256	-6.258530290846296
O	-2.9872682080314816	4.455643448425926	-5.224487490846296
O	-2.8056766680314817	5.690579268425926	-8.676096950846297
O	-6.0292701780314815	3.7162270084259257	-9.364894240846295
O	-7.6837090280314815	5.488209798425926	-6.368550370846297
O	-6.401253278031482	8.886691918425926	-7.590883790846297
O	-8.275559488031481	8.149895188425926	-10.865696500846296
O	-4.769322448031481	11.844474998425927	-0.33316938284629627
O	-7.558874348031482	8.129207578425925	-0.011381430846296281
O	-7.071251668031482	7.8913278484259255	3.8477427591537037
O	-9.151487528031481	3.5310071584259255	3.554212489153704
O	-11.475708488031481	-1.0023029115740743	4.883085459153704
O	-6.706470248031482	-3.592985631574074	6.369213109153704
O	-8.510229438031482	-5.045360541574075	3.362600019153704
O	-6.455301528031482	-5.207697751574074	0.1664345891537038
O	-6.990391448031482	-6.178789021574074	-3.5188499408462963
O	-10.649002428031482	-5.307508641574074	-3.7536124208462964
O	-11.253040288031482	-6.860623141574074	-0.36767472084629627
O	-9.733660948031481	-10.266626601574075	-1.1808299798462962
O	-6.7768520880314815	-9.862795701574074	1.1805703191537038
O	-3.0703266980314816	-7.389787901574074	5.8709999491537035
O	2.903436421968518	-3.900746491574074	8.684619739153703
O	4.301747361968518	-2.7853747115740743	12.033796869153704
O	6.941098211968518	-5.5666365315740745	11.705664969153704
O	8.481209131968518	-4.020959671574074	8.567132529153703
O	8.652107881968519	1.2340394564259256	6.142704089153704
O	7.0636436019685185	-0.07642548157407436	9.349757369153703
O	3.9122747419685187	4.165611768425926	7.262155629153703
O	0.5361648319685184	2.6493251084259253	8.052215119153704
O	0.3064803419685185	2.8371581984259255	11.869027269153703
O	-3.675168208031481	5.583790198425925	9.508692069153703
O	-4.8248873180314815	2.7148763784259256	11.725903169153703
O	-0.8001165420314815	13.462507698425926	4.982054929153704
O	8.543705191968519	9.750170998425926	1.6312152091537038
O	17.16453011196852	5.113093528425926	-3.3836704308462964
O	13.044475411968518	2.1591557584259258	-5.969344460846297
O	11.083481711968519	5.1688576284259256	-7.271289250846296
O	7.623979971968518	6.677323678425925	-6.841355880846296
O	5.0319300419685185	6.278318578425926	-9.628790730846296
O	2.3721641419685184	10.307711788425927	-7.386346430846296
