87

O	-2.0912169276199997	-0.2657147526769228	-1.0143204977230766
O	4.81901706238	-0.46657125767692287	-0.8495306637230766
O	-3.55033872762	-0.14057762267692286	-0.9186293717230767
O	5.32954772238	-2.5941180446769225	-0.44888085272307665
O	-4.01252927762	-1.4976432746769228	-1.0436602467230767
O	-3.50256694762	-2.304652134676923	0.14969602327692333
O	-2.00630070762	-2.1836228646769227	0.08225431727692334
O	-1.6819256276199999	-1.6423002346769227	-1.0686164067230766
O	-0.5011597036199998	-1.868746054676923	-1.8330311957230765
O	0.22662266238000028	-0.8755783246769229	-1.9790794757230765
O	0.9554896723800002	0.26385729532307717	-1.5718226177230767
O	0.9101548923800002	0.6654853423230772	-0.38145057272307664
O	0.8439340423800001	-0.4436207596769228	0.5856378042769234
O	1.1313453823800004	-1.6525944346769228	0.3726238202769233
O	2.25903826238	-2.4542110446769225	-0.12928187772307664
O	3.3297208223800006	-1.7917616746769227	0.24281299427692338
O	4.4249725923800005	-1.6028526846769229	-0.6666980092230766
O	-1.7099734146199999	0.47884376942307716	-2.223870745723077
O	-2.07305844762	0.6948587563230771	0.1421953002769234
O	-1.4227638276199999	-3.656919044676923	0.03360608327692338
O	1.60113684238	0.4281754746230772	-2.8045486657230767
O	2.4349506223800006	-3.048759954676923	-1.4922165847230766
O	-8.38438796762	-1.5985315646769227	13.560499264276924
O	-4.60006993762	-6.709979914676923	-8.606035625723077
O	-0.9280907653199998	-5.504934174676923	-8.329190645723076
O	0.30253844238000016	-9.130915644676922	-8.122457635723077
O	-2.37705267762	-9.822395324676922	-5.479754895723077
O	-1.22892288362	-6.927750624676923	-3.433061385723077
O	2.23783902238	-8.373945884676923	-3.242349605723077
O	1.2557107723800003	-11.557350424676923	-1.5316293437230768
O	-0.5471729946199998	-9.587353524676923	1.2145692942769233
O	2.37640523238	-7.181378244676923	1.3732133742769235
O	4.928192382380001	-9.931124524676923	2.059919714276923
O	2.59241052238	-11.459608624676923	4.6470843942769235
O	2.3818128423800005	-8.026468364676923	6.3336824042769235
O	6.19705759238	-7.674360694676923	6.228438224276923
O	6.37618346238	-10.954120524676922	8.188644774276923
O	5.63584392238	-6.322830984676923	11.196614664276924
O	8.98014575238	-8.077131984676923	11.634661264276923
O	13.04017498238	1.6663922953230772	5.602054484276923
O	8.186745952379999	-1.6323937146769227	6.9324746342769235
O	6.144979222380001	0.16238704832307715	4.373318294276923
O	5.535350082380001	3.1922523553230775	6.424196724276923
O	3.9170837823800007	0.6696979683230772	8.823670504276924
O	2.01279817238	-1.2005982646769229	6.098994934276924
O	0.41297961238000025	2.150099025323077	5.052360714276923
O	-0.3105844786199998	3.161577765323077	8.544552944276923
O	-2.16079118762	-0.09510266167692283	9.186600944276924
O	-3.8198460676199995	-0.14749676167692283	5.825601414276924
O	-5.568893227619999	3.119091205323077	6.777547294276923
O	-7.23208131762	1.0291529373230772	9.543517564276923
O	-8.95150558762	-0.9759367146769229	6.791972144276923
O	-9.920072857620001	2.1029136853230774	4.676419184276924
O	-10.512749597620001	-0.8160068846769228	1.4252253942769233
O	-11.11152321762	-4.160693024676923	3.200412174276923
O	-9.240796987620001	-7.143989964676923	1.5954331942769233
O	-13.953976517620001	-8.311828274676921	0.6233339742769234
O	-12.59409661762	-2.9275129546769225	-3.0073334457230767
O	-8.88717247762	1.2481572503230773	-8.202027005723076
O	-8.82420015762	4.756166565323077	-9.636676295723078
O	0.24304814238000017	3.656290095323077	-14.082031035723077
O	-1.6013519386199997	1.1700891333230772	-11.771013735723077
O	-4.5481150776199994	3.4688249453230773	-11.111772235723077
O	-2.23155323762	5.948072905323077	-9.318352195723076
O	-1.03616438962	3.471054835323077	-6.718896355723077
O	-3.8358637476199995	3.7582656053230767	-4.197327575723077
O	-5.139637887619999	7.176426935323077	-4.300917135723076
O	-2.39290406762	8.899729315323079	-2.1710766657230764
O	-3.0063955276199996	6.135485955323077	0.5064905342769234
O	-6.720187267619999	6.854141505323077	0.6026620542769233
O	-5.925670117619999	10.596075875323077	0.8267633642769233
O	-3.61002004762	9.905828615323077	3.7961387942769234
O	-6.01245431762	7.384688145323077	5.399002584276923
O	4.272530912380001	8.538565615323078	5.5241587542769235
O	7.73094610238	8.836090335323078	3.933876094276923
O	6.23361780238	10.838378975323078	1.0122385742769233
O	3.6355732423800005	8.110047045323077	0.47995413427692346
O	6.416442792380001	5.468129085323077	0.28122914427692336
O	8.41251569238	7.836000685323077	-1.9732404757230766
O	5.5365219023800005	8.110828465323078	-4.453011185723077
O	5.00116639238	4.386412435323077	-4.397130555723076
O	8.66774583238	3.589927665323077	-5.048768855723076
O	5.70655410238	4.233596925323077	-9.442601385723076
O	7.4675141723800005	0.8691010503230772	-9.057995195723077
O	10.50695388238	2.2563492553230775	-10.899997735723076
O	6.778251342380001	-0.33749702267692283	-13.829510635723077
O	8.09067108238	-8.167052234676921	-7.933369075723077
