68

O	1.7379858544509093	-0.2703392406314541	-4.541609382219999
O	-0.40788726154909094	1.509377633368546	0.5448339637800009
O	-0.6012773785490909	0.38314505836854595	1.364909937780001
O	0.8795011044509091	-0.743492650631454	-0.03531984131999908
O	0.7046267144509091	-0.2555485606314539	-2.3529348522199993
O	-0.4967791365490909	1.075374457368546	-0.777781382219999
O	0.4362248344509092	-0.4949232906314539	1.2198844477800008
O	0.422168524450909	0.09985012636854596	-1.0106188132199991
O	1.916990674450909	-0.014312941631454024	-3.0976401722199993
O	0.299017194450909	-1.5730099806314541	2.153777317780001
O	0.1848751344509092	-1.3440659106314543	-2.627954222219999
O	-0.7401971135490909	-2.361733420631454	1.788816687780001
O	0.3251962844509091	-1.251020220631454	3.335325127780001
O	-4.480052405549091	6.693980349368546	-7.4768199922199985
O	-4.781221945549091	5.5299580093685465	-3.849227252219999
O	-8.01068545554909	3.6109906593685457	-4.560328582219999
O	-6.376228255549091	2.149868199368546	-7.686805692219998
O	-3.441229545549091	0.948608142098546	-5.791289282219998
O	-5.737603205549091	-1.0819791906314542	-3.500759622219999
O	-7.167889295549091	-3.2214479206314537	-6.208666622219999
O	-3.643189875549091	-4.208782820631454	-7.368380782219999
O	-2.620743535549091	-4.661882750631453	-3.7145078522199992
O	-5.399399735549091	-7.161593530631454	-3.0060199922199993
O	-4.640274125549091	-9.000254160631455	-6.262232002219998
O	-0.9747548433490909	-9.228681840631454	-5.171021282219999
O	-2.048907635549091	-10.470537340631454	-1.6996804922199993
O	-3.8572281355490907	-13.343872440631454	-3.5150193022199994
O	-0.7113319155490909	-14.104950340631454	-5.5711519222199986
O	-0.6395378925490909	-10.798181740631454	7.795662217780001
O	2.445427774450909	-9.832598240631455	2.786313867780001
O	3.357315994450909	-6.225367630631454	2.364429037780001
O	6.999290954450909	-6.713080250631454	2.9095494777800006
O	4.610780334450909	-6.647077030631453	-2.138827532219999
O	7.37059749445091	-3.9717700506314544	-1.6967285922199993
O	8.413523164450908	-7.294053270631454	-5.833640152219998
O	7.350002634450909	-3.7763281906314545	-6.620728612219999
O	11.029899694450908	-2.807271380631454	-6.710645962219998
O	1.4923958744509092	-0.292933580631454	-13.51284554222
O	3.577650634450909	10.697185629368546	-7.427224432219999
O	0.360385174450909	14.521035459368546	-4.999622432219999
O	-0.36596344654909085	13.078465759368546	2.692344447780001
O	-0.6905732345490909	10.988477559368546	-0.5381832592199991
O	2.521207144450909	12.295157259368546	-2.091207292219999
O	4.537487384450909	10.604087219368546	0.688535503780001
O	3.324814544450909	7.0653890193685465	-0.0024877191199990795
O	5.622155324450909	5.946873529368546	-2.8238503222199993
O	8.83109747445091	7.826955979368546	-2.2486208422199994
O	10.252888194450907	5.523740269368546	0.524517247780001
O	9.628225694450908	2.567207639368546	-1.8022273222199992
O	14.427655294450908	1.272561393368546	-1.1570892322199993
O	8.893509504450908	0.697577762368546	4.824196497780001
O	5.753365224450909	-1.0934737706314541	6.031244577780002
O	5.857420444450909	0.894838106368546	9.257566647780001
O	3.1283496644509095	3.126301329368546	5.0844550377800015
O	0.9036193344509091	2.052006329368546	8.01477491778
O	0.37648776445090903	7.154377449368546	6.6901296977800015
O	-2.7913113855490908	5.064261569368546	6.546989047780001
O	-3.581441725549091	5.889701859368547	10.14998715778
O	-5.7939775155490905	9.019982149368545	6.333789477780002
O	-8.16756754554909	6.997708599368546	8.54272423778
O	-12.356032005549093	3.569652649368546	2.654782197780001
O	-9.79526439554909	0.774725257368546	2.513798047780001
O	-10.656500705549092	-2.5233559806314543	0.7235600877800009
O	-9.04691382554909	-7.475364380631453	2.7652742477800007
O	-6.544069445549091	-4.675249110631453	3.440668847780001
O	-4.457857955549091	-7.344045600631454	7.193994837780001
O	-3.899091065549091	-3.9356548206314543	8.87056829778
O	1.611289334450909	-4.671887770631454	15.58598425778
