96

O	-3.9014183286615385	-4.907796830692308	0.3409730433076915
O	-2.5362813886615383	-3.105022220692308	1.1267444433076914
O	-5.066877488661538	-5.024825810692309	0.8578916333076915
O	-3.3903351586615385	-3.595569920692308	0.09374189330769156
O	0.898187091338462	2.113520319307692	-2.4627928366923086
O	-3.063962948661538	-5.891839420692309	0.8763433933076915
O	-2.657712598661538	-3.258504440692308	-1.1676085516923085
O	2.2044679613384615	1.139213029307692	-1.3487592996923083
O	-1.8921838086615381	-1.8850525506923077	-0.9694822616923084
O	-2.857987518661538	-0.926437560692308	-1.2968057166923084
O	-2.158175860661538	0.262212122307692	-1.4870769026923085
O	-1.046898070661538	0.258836764307692	-2.351831236692308
O	-0.23465747866153808	-0.800621900692308	-2.1768105466923084
O	-0.5742388186615381	-1.758781430692308	-1.2962542146923084
O	-1.156670653661538	-2.908359660692308	1.0065823533076914
O	-0.5204588016615381	-2.195833590692308	1.9586829533076915
O	-1.362585969061538	-1.1501775706923079	1.7995752733076915
O	-2.5316297986615384	-1.669614770692308	1.2843106033076914
O	-1.049049695661538	1.4144353913076921	-3.2903235566923086
O	-1.6343279716615382	2.506743739307692	-2.3484619566923084
O	-1.1058654286615381	2.263762549307692	-0.9238199606923084
O	0.25150670133846176	1.8136150193076919	-1.3201668056923084
O	2.033971161338462	1.4771480013076919	-2.5544957666923085
O	1.2698782413384617	1.543876856307692	-0.5046436736923084
O	2.907852601338462	1.8003047993076922	-3.6968198166923085
O	3.850867111338462	0.859551601307692	-4.110379706692308
O	3.6109677013384625	0.273203783307692	-5.365673596692308
O	2.2652730113384623	0.465077805307692	-5.771949626692308
O	2.246393011338462	1.8477156893076918	-6.053118346692308
O	2.503494661338462	2.521493939307692	-4.833662266692309
O	1.0195363513384617	1.0956245353076919	0.9088657833076915
O	-10.193513358661539	10.613122619307692	-4.3942776166923085
O	-5.752450318661538	14.224424279307692	-0.6141745476923084
O	10.877685221338462	4.108105399307692	-8.090560466692308
O	8.004429921338462	6.808455859307692	-11.326470516692309
O	7.240597091338462	3.2778890393076923	-12.575379516692308
O	9.516170421338462	-5.597547900692308	-2.8369496366923084
O	7.482689891338462	-8.029636440692308	-4.995229296692308
O	6.730901911338463	-5.3859190506923085	-7.673573976692308
O	5.460348641338462	-3.153677800692308	-4.938350556692308
O	3.3395152513384625	-5.8232479106923085	-3.3658548166923086
O	1.9325623113384618	-6.857808800692308	-6.787362246692308
O	1.1741790713384617	-3.2408040106923077	-7.576803406692308
O	-0.6712680726615381	-2.9057245206923077	-4.498939356692309
O	-2.979896818661538	-5.474564370692308	-5.297593136692308
O	-4.284930128661538	-3.776439830692308	-8.341235826692309
O	-5.230175358661538	-0.717753570692308	-6.302273926692308
O	-6.661783288661538	-2.993004450692308	-3.5916410966923085
O	-8.978447598661539	-4.7051552106923085	-5.903085336692308
O	-10.008618068661539	-1.3472477406923078	-7.389385566692308
O	-10.75101824866154	-0.10685795769230799	-3.8484731266923085
O	-12.712810778661538	-3.3214140806923083	-3.0628276066923084
O	-14.923935878661538	-2.454311420692308	-6.075037106692308
O	-15.40238957866154	1.133904550307692	-4.817046256692309
O	-9.93796466866154	-4.189048550692308	4.331073613307692
O	-9.369816408661539	0.260819835307692	2.8226062633076916
O	-7.0959555586615375	1.074040256307692	5.815971013307692
O	-5.825342418661538	5.038040169307692	3.2329147033076917
O	-5.031456818661538	7.072068839307692	6.353382423307692
O	-6.631544778661538	9.938107499307693	4.346797333307692
O	-3.735609678661538	9.567974549307692	1.8423262333076913
O	-1.0145401746615381	9.295949989307692	4.551945143307692
O	1.5169406713384619	7.817655879307692	1.2881538933076913
O	-0.10902124866153806	9.116873479307692	-1.8935066466923085
O	-0.2955698386615382	6.542852159307691	-4.701910786692308
O	-1.7615020446615381	6.401916929307692	-8.240823316692309
O	-4.6897585886615385	8.730671999307692	-7.675481616692308
O	-2.448466738661538	11.136671279307693	-5.794123956692308
O	0.17915701133846196	11.547146079307693	-8.529516216692308
O	2.9260119213384623	9.802613529307692	-6.566696686692308
O	5.775189211338462	6.643870239307692	-1.4923266126923083
O	11.34410822133846	3.530045569307692	1.4438215833076913
O	8.612068521338461	1.055693036307692	2.3577716533076916
O	10.316851021338461	0.336985818307692	5.659359453307692
O	13.531817121338461	-0.36213678069230804	3.672744643307692
O	11.997092721338461	-3.3555666006923075	1.8774718533076915
O	13.306462921338461	-6.8040050106923085	2.7851300133076915
O	7.585740191338462	-6.9847011806923085	2.8199752133076914
O	8.96859152133846	-4.048210920692308	4.766505523307692
O	3.350471491338462	-4.393340690692308	5.499531273307692
O	2.8265785813384623	-0.6420188406923081	5.657733573307692
O	4.321145741338462	0.479827145307692	8.91075258330769
O	1.362420411338462	-0.5645094606923079	11.210696083307692
O	-0.9063989606615381	1.439474785307692	8.90958945330769
O	1.2677198613384617	4.586509309307692	9.207094983307691
O	1.2257609413384618	4.085694599307692	12.970658683307692
O	-2.609021208661538	3.8804237493076923	12.888277683307692
O	-2.967523138661538	6.737894049307692	10.345537183307691
O	-4.259431748661538	-4.003064930692308	11.506250983307691
O	-6.115332408661538	-6.524809010692309	9.32733838330769
O	-1.694080557661538	-7.953754370692308	7.362476803307692
O	-3.268766688661538	-11.473098320692307	7.179031233307692
O	0.2344373113384619	-12.888418320692308	3.9019214333076913
O	4.319108241338462	-15.091310120692308	2.1090590933076916
O	7.516746361338462	-16.544659820692306	-0.7868224246923085
O	4.074841441338462	-14.571954520692307	-6.970166776692308
