22

O	8.470461726068763	16.364121963750776	11.079903053611147
O	7.8009873205912905	17.654273003914426	11.97417456790004
O	6.614273244477942	19.61648349681838	12.643339029064299
O	7.821066118412893	18.999949281606973	12.083018091577904
O	7.529058721069643	17.239754987740287	13.228839435973807
O	6.408818262353083	17.83205397032326	13.841063971542088
O	5.89172193953077	19.15150053125027	13.79123265396367
O	4.445214883958315	19.17713015161445	13.977246426863953
O	3.7084284693875387	18.489112901660008	14.999829421244211
O	4.017870338642354	18.0322157163844	16.07763528685216
O	2.4013738983569546	18.068881619279185	14.727139157369098
O	4.042305474578928	18.624131335813285	12.772580535253947
O	4.302038718700233	17.261525602976235	12.842615358618932
O	4.891027936873156	16.516963965271387	11.846597206066619
O	5.356754274531537	15.25937801292348	11.95320785890354
O	3.9937497109830526	16.438146739831726	13.920473106067003
O	4.347054343545846	15.14766532343611	14.110012763819984
O	5.056245994285842	14.515270012347543	13.061087126999052
O	5.07674287739386	14.434608192064825	10.729618456444776
O	3.8026016480075167	13.970772913025995	10.848720346043695
O	5.879787810940481	13.399443698042793	10.927616033137577
O	4.926526948884809	15.137197521785707	9.611945346579791
