84

O	2.332899224935484	4.96577856216129	0.05490984008064492
O	0.3890781129354837	-3.4264432078387097	-0.4283879949193551
O	3.245069364935484	4.753752192161291	2.5232272580806447
O	0.7857356469354837	-4.90715309783871	-0.559184798919355
O	2.8940855649354837	7.31410226216129	0.9844008880806449
O	1.8959346749354835	-5.20084434783871	0.4438757880806449
O	4.801518474935484	6.5474995021612905	0.5580113080806449
O	1.4680451949354836	-6.291983727838709	1.3263387380806448
O	2.615237324935484	-7.0597153578387095	2.044633488080645
O	2.323805024935484	-8.16154060783871	2.972206228080645
O	3.4611710249354837	-8.859245947838708	3.630499568080645
O	0.41272767693548373	-3.20421497783871	1.0822516280806451
O	0.22984261693548375	-1.7029711778387095	1.272318368080645
O	0.5044335089354837	-0.9947133378387096	-0.010004656919355037
O	0.48037353093548374	0.46069449316129046	0.03393091008064497
O	1.0847331749354836	1.5879986291612904	-0.28405079791935506
O	0.8651403099354837	2.71448667216129	0.637778428080645
O	1.8818752149354836	2.6909186321612903	1.7173981080806446
O	2.916425564935484	3.7009412421612904	1.847905138080645
O	3.1172919049354837	4.01156014216129	0.379552928080645
O	2.942064054935484	5.92055903216129	-0.8071648819193551
O	3.5983282849354836	6.93323876216129	0.031677351080644955
O	1.0825253349354835	-13.33737228783871	5.580925728080645
O	3.9558997049354843	-15.368110887838709	1.8665130880806449
O	6.661730704935484	-13.274312187838708	3.590506018080645
O	0.7278631119354837	-3.25529607783871	10.260078578080645
O	4.243931204935484	-1.7520839278387095	10.387019778080646
O	5.791160744935484	-4.55156816783871	8.294346598080645
O	3.138834424935484	-4.00135056783871	5.590775088080645
O	3.694448394935484	-0.2020296078387096	5.746600268080645
O	7.484489784935484	-0.7011494878387095	5.496508758080645
O	6.923650304935483	-3.0862102678387098	2.5912684080806447
O	4.741361184935483	-0.49399891783870964	0.7237052480806448
O	7.659495974935483	1.8199062981612903	0.799529538080645
O	10.128687264935484	-0.2840801878387096	-1.0639089939193551
O	7.568755914935483	-0.7867501378387096	-3.8849035219193553
O	6.658689954935483	2.8725629821612904	-3.763201471919355
O	10.261662464935485	4.03797088216129	-4.274327091919355
O	10.689636964935485	1.5284515681612905	-7.1018153119193554
O	7.527868034935484	2.9691336821612904	-8.738697641919355
O	8.769483914935485	6.56564410216129	-8.175053291919355
O	11.861212764935484	5.5478622321612905	-10.225287631919356
O	9.668531304935485	3.9940619221612907	-12.979420921919354
O	1.7187059249354837	9.53410460216129	-6.016542971919355
O	1.1746420649354836	5.54355959216129	-8.380049421919354
O	-2.5058737150645163	5.337353062161291	-7.270063151919355
O	-2.238579745064516	0.6336647021612904	-8.549225691919355
O	-5.917389425064517	0.5095002561612905	-9.561817111919355
O	-4.672767175064517	-1.6854829078387097	-12.476826621919356
O	-3.531272975064516	-4.213359947838709	-9.801769661919355
O	-6.772472165064516	-3.97530002783871	-7.749130981919355
O	-4.476561205064517	-5.96853012783871	-4.624349011919355
O	-1.6703194150645164	-7.732607537838709	-6.479644011919355
O	1.7194205549354835	-7.39399723783871	-4.777395331919355
O	5.321351594935483	-8.41383665783871	-5.5909358519193555
O	1.7736260749354835	-9.97647128783871	-9.299745111919355
O	0.8299625539354837	-12.218923987838709	-4.258082791919355
O	-3.4983293050645163	-9.092581357838709	-0.478802403919355
O	-6.972284725064517	-8.02314696783871	5.556180268080645
O	-5.772874285064517	-4.45330402783871	4.959644128080645
O	-8.959564705064516	-3.109810957838709	6.4927042880806445
O	-8.298396035064515	-5.332698807838709	9.571566278080645
O	-5.060652675064516	-3.4814908278387096	10.419451978080644
O	-5.021748105064517	-1.3349927978387097	13.557219778080645
O	-2.766947255064516	1.7115856181612905	9.242859438080645
O	-6.091782075064517	0.08567624316129041	8.357969498080644
O	-4.415640715064517	3.6344169121612904	4.2112292180806445
O	-5.768910515064516	1.4992361961612906	1.4118607080806447
O	-9.477353645064516	1.6671531411612905	1.5752021980806448
O	-9.911594785064516	5.07729646216129	-0.27363892891935504
O	-7.649936065064517	3.6062595821612904	-3.0485462219193553
O	-9.870541675064516	0.5437233161612904	-3.415064931919355
O	-12.939925335064515	2.86587963216129	-3.496002951919355
O	-11.284684235064516	4.91337059216129	-6.288047561919355
O	-9.982707315064516	1.7990768781612905	-8.125236161919355
O	-6.693020725064517	10.437093592161292	-2.420324931919355
O	-3.127015875064516	11.791817512161291	-2.0411042019193553
O	-2.6504642250645163	9.485302852161292	2.413630468080645
O	-0.6609985070645162	12.56054931216129	3.470677388080645
O	1.4169660449354835	9.98096770216129	7.177701408080645
O	2.154386844935484	8.45366729216129	11.837091978080645
O	3.889120644935484	6.32056498216129	15.475183378080644
O	9.661001584935484	3.3388757021612907	12.080366578080644
O	9.761505254935484	6.83455877216129	5.890645828080645
