29

O	5.012607207616084	24.47081033873486	19.500113013975593
O	6.280041699900359	22.648826420223884	19.84216092898704
O	5.244088485868023	19.695284399870694	15.121538132927567
O	6.166074509781906	23.906094801378586	20.15136540118614
O	5.734892703899721	23.013828966273323	17.8081142877472
O	4.871089958095432	17.59720229652836	15.368921649715809
O	7.381214909167969	24.36352449127794	19.63455220528689
O	8.125286037769758	23.252790225479572	19.92908491936901
O	7.502738412491823	22.226208674379926	19.42447731430932
O	7.7326391457433035	20.88103204935271	19.940594619542402
O	6.484647524061313	20.218873065159222	20.133106539589363
O	5.18302705305689	21.144465588068847	21.840396216187397
O	5.648887258493572	22.044116095944634	22.920522195698663
O	7.165139326314738	21.846925708060777	22.834632324291114
O	7.402455349443765	20.46313275384707	23.34595078371422
O	6.956419434768959	20.390502211594	24.717585487924634
O	6.959061630205772	22.835986932386852	17.235135160519647
O	7.2509465617850735	21.514070150107578	16.7374489926124
O	6.133877294716868	20.62616957684408	16.919180664871018
O	6.59872414498558	19.25653343336247	17.252852202978588
O	5.4478625785977774	18.334172940543557	17.327122470559978
O	4.8300936205125256	18.67664371478809	15.991425881575934
O	6.753068546422223	23.931234941899117	16.522454830841347
O	6.5042099925349115	24.84918969175402	17.549635216779706
O	5.365382670288568	24.270788641028226	18.017046881079935
O	5.4292221518544626	22.05123032957883	18.840221972915018
O	4.936563168246505	20.889732859911366	18.72680584611325
O	4.220319313096777	22.528715578627583	19.25362363484547
O	6.089783190218325	20.03898651794096	21.522127061883918
