13

O	4.137489201239458	26.412017316148983	18.82615506194778
O	5.443910253868444	27.342410677061704	18.16271251665559
O	6.391826244038653	26.840289324235425	16.987738069214362
O	5.589757827015586	27.1115882695253	15.782560598020899
O	5.505773860359948	28.502379741692057	15.570176478953503
O	2.3544064362903843	26.407975666379198	18.011426764487723
O	2.929954231695128	26.847141799571133	16.621785974225457
O	2.564084825905404	28.2534071920073	16.299532563951345
O	2.945109696423084	28.915769291681613	17.635238371152038
O	4.88361116085542	24.42127142517107	18.115668236315926
O	6.141544942240661	24.552515257192272	17.330934288941634
O	6.829184113309536	24.1808124475168	16.151321480719343
O	6.496764493483608	24.612262737654753	14.76754303256102
