29

O	6.0065154332325745	21.701734177219947	11.639385315302977
O	6.7984723734329116	22.181890312639933	12.711185135605316
O	6.568450302005457	23.45399610979434	13.051231207980337
O	6.775562004995473	23.719275790959646	14.310447752330889
O	8.191808932880585	23.49207126134546	14.467996242061332
O	8.359095310974611	22.160553783935914	14.304181367465915
O	7.952014843691416	21.721054846477	13.095152068662454
O	7.871216192303891	20.34177281986118	12.466273783513627
O	8.221212717063864	19.7311342474868	13.651539161601017
O	7.134171437972937	19.510703419698974	14.589647120873407
O	6.0844405801961985	20.460008665932627	14.758614891214993
O	5.451695105249831	20.282325593439253	13.360987312325394
O	6.484070017488395	19.77130625185387	12.332350456233137
O	5.9250292005164376	20.420905342322193	11.15257071823835
O	9.624509460620896	21.773503399540203	14.536362692705394
O	6.632340040343509	18.239826245064787	14.041220046462156
O	6.550175588110784	20.005604787617848	9.964069735287998
O	4.704828094926481	19.51500523632544	11.108324629887452
O	6.45969403560998	25.096473756288486	14.60023623818818
O	7.1409711902276705	25.421143978995815	15.884410448777656
O	7.532848579768125	24.101536412426054	16.39295061617305
O	6.215540302717256	23.449517713891737	16.547176161463646
O	5.058500983974286	24.373872014234127	16.476754026237163
O	7.422110938792228	25.804169084074758	13.630094198126084
O	5.580504579950436	26.185686303011064	14.489424701044358
O	5.431730352282865	18.050718470383575	14.07894140422813
O	7.250238051138719	17.35019206254437	13.202645147069365
O	4.572205526517863	25.236427319891167	17.51290626275328
O	3.8919009595252447	26.515064252291193	17.29967125071549
