21

O	21.806683861398692	45.14345658505824	30.76309910764001
O	23.878579954852924	47.082143948945365	29.64484854983651
O	20.16228500218762	48.33796017291805	30.268825851529424
O	20.510154421665067	47.1844042626182	31.054896461007438
O	21.09025915610915	49.38932550170127	30.188361012583435
O	22.01785823805976	46.467744256728324	26.993059328046385
O	23.055046538183117	45.57089222177601	27.17953190133393
O	21.56117316993559	46.55162406844434	30.500377197221265
O	22.520924900444356	47.389771558299664	30.06161963456902
O	22.254278057224575	48.695509961901145	30.37075857398418
O	23.319428153086367	49.621051515674665	30.363799360339222
O	23.04179295693119	44.572119704885786	27.881133604449925
O	24.31088882565514	45.87525352820141	26.73534756638164
O	21.543189219891595	47.99644608004587	27.226255967101086
O	23.18020219318159	53.33600048076497	27.086615465327164
O	22.50896529371616	50.685453605178424	26.882379716272624
O	22.6767319212265	49.4279707407573	27.228411001603778
O	23.561474246407254	49.21216401928077	28.157292069311282
O	23.571497149579585	50.135948832693806	29.10129136899505
O	23.650255871854966	51.41407246469364	28.69985229300851
O	22.730376732934747	51.75444964877504	27.745722002235905
