79

O	-1.4370476957596494	-0.20462520603508802	-7.2753521037842095
O	1.5974599873403506	-2.145746039035088	1.3819812162157903
O	2.2112367373403505	-6.117216969035088	-0.2975960747842098
O	0.38171148734035043	-5.764308549035087	1.2435434762157902
O	0.8686122273403503	-4.063644529035088	-0.5568583257842098
O	0.9618147173403506	-0.14560395303508802	-1.5155655937842099
O	-0.5611596146596495	-0.20210619003508803	-6.076769103784209
O	-0.33310771265964956	-3.3247693390350883	-0.9914028177842098
O	-0.37925936165964946	-1.3306321990350882	-5.0617489637842095
O	0.5636766073403505	-0.737514812035088	-4.08068243378421
O	-0.30200955265964957	0.392399699964912	-3.62777196378421
O	1.1074145573403507	-5.172465999035087	0.11029443921579019
O	-2.7139237926596493	0.775785907964912	-1.6042008457842099
O	-1.4706687817596495	-1.1436321690350881	-1.1673342697842097
O	-0.17584162265964953	0.467430230964912	-2.12503827378421
O	0.8065500873403506	-1.252664959035088	-0.6406044983842099
O	-0.3659553926596495	-1.900310059035088	-0.8922960227842098
O	-1.4173928186596496	0.21066307141491197	-1.5370087687842098
O	-3.5331949626596497	1.587614860964912	-1.9962258137842097
O	-3.6226238026596493	0.332876573964912	-0.5387234027842098
O	-2.0264834616596494	-1.448508319035088	-2.4860390037842097
O	1.7934898973403506	-1.9972148990350882	-0.04124756178420985
O	-11.834963692659649	2.565650710964912	6.620044886215791
O	-6.70166089265965	5.270260150964912	10.270858986215789
O	0.9723515273403507	12.090537690964913	0.22083291321579024
O	5.674510227340351	7.686704910964912	-1.1296363507842098
O	9.317004907340351	7.359683390964912	-0.016589966784209764
O	11.07566110734035	6.811059680964912	-3.3835710037842097
O	7.733085477340351	10.250846790964912	-5.2135079837842095
O	5.83199157734035	7.122341950964913	-6.25793924378421
O	1.4299506173403507	9.802283330964912	-6.155955103784209
O	0.6823755673403507	7.338711240964912	-8.96530381378421
O	-1.5413407506596495	10.049125120964913	-10.300019973784211
O	-3.6106521626596497	10.786675890964913	-7.1851364137842095
O	8.491165417340351	-3.614582039035088	-7.619039123784209
O	6.112023107340351	-5.352762769035087	-10.08753051378421
O	3.840346957340351	-2.331763839035088	-10.17949254378421
O	3.7127847073403504	-2.328475349035088	-6.39506794378421
O	2.8778009173403505	-6.0641315290350875	-6.37517021378421
O	0.2440355273403505	-6.005891499035088	-9.08141410378421
O	-1.3181493080596496	-3.169472749035088	-7.24542051378421
O	-1.7324257186596494	-4.908664189035088	-4.06035951378421
O	-3.8860963026596496	-7.344782449035088	-5.80810172378421
O	-6.694405832659649	-4.985025969035088	-6.64415206378421
O	-6.926382602659649	-3.744719189035088	-2.9663600837842097
O	-6.448039742659649	-7.320118769035088	-1.80618662378421
O	-9.468082662659649	-8.476542979035088	-3.83447658378421
O	-11.501151692659649	-5.452624469035087	-2.68591126378421
O	-10.659243602659648	-6.428342479035088	0.9287509162157902
O	-11.600678492659648	-10.080250209035087	0.24194392121579023
O	-15.073531492659649	-8.767277169035088	-0.8027116540842099
O	-5.322194422659649	-13.140001409035088	4.13660859621579
O	-6.32112538265965	-8.795566119035088	5.659526056215791
O	-2.9666530626596495	-8.655096899035088	7.507603926215791
O	-3.6146921126596494	-3.8233694190350884	7.558301896215791
O	-1.8140902826596494	-3.437078069035088	10.88446608621579
O	-3.1452893826596497	1.2178580409649118	8.69024698621579
O	0.5311792073403505	0.734840163964912	9.760480786215789
O	5.00009706734035	3.014507530964912	6.9428108362157905
O	1.4863006973403503	2.138192780964912	5.72145732621579
O	-1.6031515736596496	4.011584120964912	4.61551551621579
O	-2.7088020426596495	3.372654810964912	1.2190481262157902
O	-5.70169499265965	4.263676160964913	-1.1512720397842098
O	-8.297153032659649	4.721418750964912	1.4575501762157903
O	-5.80127594265965	6.5712283909649125	3.63575198621579
O	-4.830402942659649	9.245090300964913	1.10385111621579
O	-1.2631824406596495	7.959804750964913	0.6872676662157903
O	1.4495180073403504	6.749885360964912	3.0254598762157903
O	4.212014717340351	4.515148610964912	1.8654244662157904
O	7.302608007340352	4.322459960964912	3.9592849562157904
O	8.505511867340351	0.976300082964912	5.26930168621579
O	11.96225540734035	1.937483890964912	4.01622880621579
O	10.781130007340352	2.365034240964912	0.4012739362157901
O	9.159116007340351	-1.0682510990350882	0.4498383662157902
O	12.53066310734035	-3.055581809035088	-3.53790519378421
O	6.70047870734035	-8.834884709035087	0.9157228162157901
O	5.783828227340351	-6.1368995090350875	3.43665522621579
O	3.6992893073403503	-7.518349719035088	8.08975292621579
O	5.287434577340351	-4.410542409035088	9.596369786215789
