97

O	2.705698344559322	1.2744272158050844	5.154361916245763
O	-2.7558335554406783	-2.0775531661949156	0.46764444424576257
O	-3.242721285440678	-5.569388666194915	-1.7802301937542375
O	1.9118214045593218	-2.7469154061949155	-1.1626759887542375
O	1.3443929045593217	-1.5718034761949158	-1.5296358037542375
O	0.9984209745593219	-3.768384136194915	-0.8567781057542374
O	-0.08217909844067817	0.9322294158050844	3.3494010762457624
O	0.1819988925593219	-0.3652705701949156	5.195912376245762
O	-0.8570659674406781	-0.1429903411949156	2.924639476245763
O	-0.7764745274406781	-1.3205191261949156	4.863233516245763
O	2.6431820845593217	-0.7551926561949156	2.543191736245763
O	1.6653802445593215	-1.7997685261949157	2.6283223862457628
O	-0.5667874590406782	-2.631420436194915	-1.1175189847542375
O	1.6822011145593216	-0.006696378194915531	0.7329682032457625
O	-0.7984424604406781	-0.5131877961949156	-1.0749787647542375
O	-3.017871455440678	-5.653403806194915	0.6424606262457625
O	-1.3481316954406781	-2.4062544261949155	2.814788776245763
O	-3.584474315440678	-6.722173416194916	0.5608350502457625
O	-1.456617428440678	-3.546380876194915	3.2085365162457626
O	-3.554032145440678	-4.934626896194915	1.6723292562457623
O	1.3546853745593217	1.6003731238050845	5.212745556245762
O	-1.305817694440678	-4.726863456194915	-0.46868299175423744
O	3.8542196245593217	-0.8758491661949155	0.27430377424576247
O	0.044103606559321884	-1.5762990661949157	-1.6779061437542375
O	-1.374790523440678	-1.8911878261949158	0.7488391212457626
O	0.4794907845593218	0.7912454088050844	4.562831346245763
O	-0.3562786134406781	-3.9212466561949153	-1.1242204457542375
O	2.8569427645593217	-0.5326917161949156	1.2376704862457624
O	-0.7262067886406781	-1.2661369561949156	3.582535926245763
O	-0.5758129915406781	-0.9330450861949156	0.27212292424576257
O	0.6910862945593218	-1.0571245861949157	0.6943171922457625
O	0.6428288145593218	-1.9772989761949156	1.6342943162457624
O	-2.651246525440678	-4.945305986194915	-0.5722317437542375
O	4.158774864559322	0.15388181980508442	-0.5056311727542375
O	-0.5799217397406782	-2.4882839361949154	1.6264846862457625
O	5.1482525245593225	0.3357702698050844	-1.2896598137542377
O	3.073851484559322	0.8668430998050844	-0.8083836267542375
O	4.654602734559322	0.8492786988050844	0.6230351382457625
O	-1.5506860134406781	2.3102449238050844	11.269089106245762
O	-5.129198985440678	0.7378149168050845	11.155836606245762
O	-5.9190598154406775	2.2881518738050843	7.740924146245763
O	-5.291341955440678	6.049917603805085	7.703676106245763
O	-5.412112985440678	8.609917043805085	4.876037456245762
O	-10.289711335440678	6.4649791938050845	5.872951716245763
O	-8.663589945440679	5.862335003805085	2.5099702762457627
O	-8.918602535440678	-5.356310076194915	-10.208339193754238
O	-11.865583825440678	-12.072874926194915	-1.3957851737542375
O	1.0452706745593217	-9.779939126194915	-7.569041343754237
O	4.779817614559322	-9.228511546194916	-6.646420973754237
O	4.542707014559322	-11.985672326194916	-4.011177733754238
O	1.329625554559322	-10.345876226194916	-2.6311551437542375
O	3.027705804559322	-6.931438256194915	-2.2359111737542374
O	5.780517934559322	-8.777432086194915	-0.04094700075423749
O	3.260333294559322	-9.859498126194916	2.5707588462457625
O	1.7275565045593217	-6.5120267061949155	2.8541633162457627
O	5.325591014559322	-4.916399716194915	2.778274126245763
O	6.564000744559322	-6.944255546194915	5.739737566245763
O	3.4200196845593216	-6.208438656194915	7.661323626245762
O	3.916227204559322	-2.453131956194915	6.871712746245763
O	7.5304319345593225	-2.7071237661949157	8.055192816245762
O	6.233412504559322	-4.0566343061949155	11.436631906245761
O	3.754749124559322	-1.1137513961949155	11.608582806245762
O	6.413565314559322	1.4600459368050844	10.874651106245762
O	8.780488514559321	-0.04842197319491559	13.428085306245762
O	11.277741074559323	2.1254149438050844	6.182120266245763
O	10.544288374559322	2.0689720338050845	2.4620984762457625
O	10.549790674559322	5.853102413805084	2.2330702462457626
O	7.744036524559322	5.745379003805085	4.807470346245763
O	5.837663804559322	2.9375996638050843	3.1555464762457626
O	5.781537764559322	5.164097133805084	-0.10821840425423748
O	4.742719704559322	8.206165943805084	1.6854747162457624
O	1.7758711645593217	6.4023489738050845	3.1607728162457627
O	0.879078694559322	4.514613093805084	0.05982835524576252
O	0.2528894135593218	7.792421373805085	-1.7032105937542377
O	-2.619962745440678	8.086742723805084	0.8465752662457625
O	-4.196179245440678	4.953491083805084	-0.7999337187542375
O	-3.578603325440678	6.139751953805084	-4.380129413754237
O	-5.087369555440678	3.122953293805084	-8.996570343754238
O	-4.388780515440678	1.9759780138050844	-5.480467873754237
O	-6.3492659754406775	0.5408084403050845	-2.5932469037542374
O	-5.341322845440677	-2.9875869661949155	-1.6100991837542376
O	-6.291922425440678	-5.522386176194916	1.0890951962457625
O	-7.165916305440677	-3.1182905061949153	3.6717191662457624
O	-9.094476165440678	-0.8972267661949156	1.2994990562457625
O	-11.350926825440677	-3.6960006061949153	0.09745450124576252
O	-9.833379415440678	-3.8104533261949154	-3.3718452337542373
O	-8.708353085440677	-1.2052550461949156	-5.8882829637542375
O	-6.033725555440678	-2.1490317661949154	-8.401276663754238
O	-2.6630760854406783	1.8087484238050844	-12.364774893754237
O	-3.478663535440678	-3.109765176194916	-14.830690993754239
O	-0.16087200544067815	-2.731430346194916	-13.101464893754239
O	7.430560224559322	-1.2699470261949155	-10.170050103754239
O	4.388947514559322	0.8522111338050844	-9.353215443754237
O	5.059411424559322	5.588034303805085	-6.954622893754237
O	1.8921181745593216	6.748042353805085	-8.749430973754238
O	1.693410284559322	10.099559253805085	-5.228300893754238
O	2.1005977545593217	15.285268373805085	-6.933714343754238
