26

O	8.303076524768072	24.86809885790597	15.434810595789266
O	7.020903520138189	25.28032249991507	15.447774897807953
O	6.852277111258732	26.625279217987806	15.053402414762484
O	7.125694531254985	27.29875215868465	16.270366064955667
O	6.53005948936999	24.152960500876514	16.03759077716412
O	5.623178067076521	24.960871984437112	16.445801803166177
O	4.823277578353975	25.321084806531424	15.344351768413356
O	5.469188390089294	26.397858291398077	14.614189047146652
O	7.431984747905928	23.579254312362664	16.969443922348773
O	5.557524325893743	25.39314924908261	17.63700809263551
O	6.540264540625955	25.013152699430567	18.503353964522674
O	7.076843863890116	23.826397132606086	18.398544521880574
O	8.225039423300569	22.589884840009464	16.358510510684628
O	6.085960748155646	27.259512218749713	19.23662664772304
O	5.7048258584466565	27.47580277316571	17.983508649275702
O	4.583844094393678	26.45999148655692	17.919619865988018
O	6.574589259173384	25.9929866495969	19.413327345866264
O	6.706025788114083	25.633302106583685	20.711195772465814
O	7.971843806683411	26.279150858396488	20.883564059538497
O	6.858189792917347	28.129086258985243	19.931232529043907
O	5.810666306670089	28.69937801267104	20.656899466955537
O	9.10546785638382	25.834020112562392	16.1057617244461
O	8.533691010586358	26.866727968905476	16.614061984794283
O	9.649859840647618	25.125490021610354	17.11856381280031
O	9.714530171012001	25.778023052851466	18.29431260664662
O	8.868580450971034	26.928784332373013	17.905908546377518
