26

O	8.009018174842598	21.92775397608073	8.330076691890909
O	8.71374998011104	22.8690928535936	9.223265034199217
O	9.319243686871935	22.399514849570444	10.433740156164305
O	9.046741796145355	22.73621064877832	11.727335993941626
O	7.900591432529065	23.55628096071184	11.958636220203964
O	6.750910180779338	22.68848137956469	12.245587347801305
O	6.797159880337688	21.621206307295942	11.428243874917884
O	7.808958938038285	20.63658543345542	11.954690689945439
O	7.058905156874478	20.220700618774234	13.144824181288582
O	6.7975567362706135	21.110321816487573	14.024110855946198
O	7.803203998266154	21.923731815762824	14.58108794602597
O	7.97152897129941	22.60120906084668	15.768176600588136
O	7.919064880217121	23.873775029346174	15.973724097609512
O	8.293193794130133	24.760785675061822	14.913813775691146
O	7.136752514370075	25.623433578239883	14.577996519974185
O	6.112279229377169	25.529556524314533	15.671440043875556
O	4.925636466418897	25.100264763875572	15.333038610908611
O	4.881610546757949	23.612124888115268	14.94936747002771
O	4.846319488034444	23.02576199484616	16.345096887679176
O	4.951000458398803	24.1224299091612	17.214317488819294
O	3.9072309429122836	24.43780866585819	18.37842038401965
O	2.880583827726062	25.304355809213185	18.81215539699848
O	1.6283808867287242	25.743795701322185	19.200491485211238
O	1.2051399343088036	25.553764144368955	20.39354103426369
O	0.9051332457346533	26.926660720682413	18.94017251706144
O	5.0874423439666	21.853044304066707	16.30063850980192
