92

O	1.32784124766129	2.701754572009677	6.102453726285483
O	-1.82063366233871	1.592002702009677	3.508184346285483
O	2.66175707766129	2.5948643520096772	5.762628506285483
O	0.5296290276612902	2.9421582920096774	5.054539216285483
O	-1.1810455023387099	0.5128439721096771	3.950821186285483
O	-1.39499147233871	1.906969442009677	2.273829156285483
O	3.23562742766129	-0.5657758479903229	0.6736180212854831
O	2.7750352876612903	-1.6178970679903228	2.487439086285483
O	2.85200011766129	1.912319072009677	4.562171336285483
O	1.08429635766129	2.6420684420096774	3.799856866285483
O	-0.9503084373387098	-0.44700527799032297	3.0425259462854832
O	-0.6125054893387099	1.1200748690096771	1.512763846285483
O	0.9248995176612901	-2.2964354779903227	-0.9396538387145169
O	0.4665336636612901	-3.499557047990323	0.9714872862854831
O	2.56647504766129	0.5619144365096771	1.227211886285483
O	2.24842562766129	-0.488836407990323	3.101709676285483
O	0.23725333566129012	-1.198731607990323	-0.37132144271451695
O	-0.24128633513870987	-2.4433494379903227	1.418657816285483
O	3.37177927766129	-2.969599867990323	0.37289957528548306
O	3.76699931766129	-5.595334127990323	0.7308800972854831
O	3.08538650766129	-1.842573797990323	1.216612166285483
O	0.9711939476612902	-3.5161131979903226	-0.29982641271451693
O	1.95975803766129	1.712049632009677	3.513238646285483
O	4.11852410766129	-6.337884277990323	-0.2579280337145169
O	3.54621807766129	-6.666175177990323	1.624119756285483
O	1.9828658776612902	-4.5027221579903225	-0.40589173671451695
O	-0.5718855713387099	-0.18394610499032293	1.812633136285483
O	2.28821228766129	0.732981754009677	2.531166646285483
O	-0.07022134433870987	-1.188102917990323	0.953904908285483
O	3.0228393476612903	-4.362770267990323	0.6257206212854831
O	12.63524087766129	6.216461822009677	-5.7285195337145165
O	7.4029632276612904	9.778717662009676	-8.435048933714516
O	-4.36520744233871	10.113727322009677	3.859431286285483
O	-9.68594320233871	8.967646462009677	6.125765786285483
O	-4.27812515233871	8.484046622009677	8.740369056285484
O	0.2065273466612901	10.908078232009677	9.008796546285485
O	0.8885342976612901	8.036843432009677	11.372380426285485
O	-7.40512703233871	-2.180426137990323	8.221404126285481
O	-4.85394938233871	-4.348405587990323	10.086976226285483
O	-2.42374048233871	-1.4465178779903227	10.843614926285483
O	-2.38442847233871	-0.734358157990323	7.320099946285483
O	-1.84364464233871	-4.467096437990323	6.213431716285483
O	0.9649693476612901	-4.752480627990323	8.750999086285482
O	2.58360380766129	-1.7390311779903227	7.662476826285483
O	2.55182409766129	-3.252554957990323	4.322888686285483
O	4.79780108766129	-5.662489617990323	5.112309376285483
O	7.74791749766129	-3.775418897990323	6.254598696285483
O	8.06034071766129	-1.8253858479903227	2.951952466285483
O	7.41092056766129	-4.924467687990322	1.057835266285483
O	10.24492227766129	-6.768677327990323	2.560153656285483
O	12.46349047766129	-3.6848197979903228	1.916352886285483
O	11.33136107766129	-3.767280557990323	-1.755854653714517
O	12.10542487766129	-7.527937147990323	-1.885988003714517
O	15.68754607766129	-6.615171687990323	-0.8173053587145169
O	5.76281867766129	-9.533706467990324	-6.247420373714517
O	6.68174846766129	-4.929378007990323	-6.621080243714517
O	3.32476356766129	-4.343935127990322	-8.420740933714516
O	4.09502328766129	0.35865694000967707	-7.480367853714517
O	2.23163941766129	1.472570448009677	-10.683555773714517
O	3.76815547766129	5.584066402009677	-7.644004123714517
O	0.03970097566129013	5.3383415920096775	-8.525256613714518
O	-0.6439081983387098	5.899341282009678	-4.262217603714517
O	2.54045167766129	7.477716622009678	-2.910711873714517
O	3.81147168766129	5.897224662009677	0.2947282702854831
O	6.92478933766129	6.438243492009677	2.663240646285483
O	9.43795264766129	7.359698262009677	-0.02258523241451693
O	6.82307167766129	9.579727742009677	-1.5779212137145169
O	6.07908841766129	11.709592132009677	1.487748016285483
O	2.50336890766129	10.416230602009676	1.855359646285483
O	-0.3325204983387099	9.925857242009677	-0.6380437077145169
O	-3.19943165233871	7.615251912009677	0.08874892428548307
O	-7.73101077233871	4.8271730720096775	-3.677581413714517
O	-9.81111721233871	5.351657222009678	1.4678376162854831
O	-8.33364233233871	1.918564782009677	0.6599345972854831
O	-11.59191492233871	0.8484199520096771	-0.9645773387145169
O	-13.380710922338709	1.9212820320096773	2.292509476285483
O	-11.50443872233871	-0.6816450679903229	4.407167686285483
O	-8.84932326233871	-5.679503347990323	3.4072096562854832
O	-10.62504932233871	-3.219681677990323	1.135321486285483
O	-6.3184345923387095	-5.6831168479903225	-1.642625763714517
O	-5.36517787233871	-2.6247461579903226	-3.642472283714517
O	-8.09415929233871	-2.0420750879903227	-6.111226853714517
O	-3.42839402233871	-2.9765401279903227	-8.597103983714518
O	-4.92344512233871	0.4601845450096771	-9.295548343714518
O	-6.88120541233871	-1.128703357990323	-12.158547773714517
O	-3.61460940233871	-2.5748393379903227	-13.552756073714516
O	-1.59984300233871	0.6116812004096771	-12.877362373714519
O	-0.3136424923387099	-11.837910467990323	-7.575762143714517
O	-3.33357629233871	-11.065523667990323	-3.662310493714517
O	-3.82400400233871	-13.690197467990323	1.9929077062854832
O	-8.26071276233871	-13.234647267990324	10.270450226285483
O	-1.90699399233871	-10.798334667990323	13.009495926285481
