96

O	-6.792942389034482	-0.9296827525000001	-0.8483132241862064
O	-7.965501559034482	-0.4152536025000001	-0.7236813650862063
O	-5.8022406490344824	-0.3629779725000001	0.03352865791379367
O	-6.941568639034482	-2.3369342725	-0.8136544800862063
O	-5.540357759034482	-1.0609702425000003	1.3053737199137938
O	0.8444003909655176	1.2938669885	0.31944767991379364
O	-4.198185429034482	-1.6979151325000004	1.1077970599137936
O	-4.721956319034483	0.4328111584999999	-0.27556848508620635
O	-3.4669211790344825	0.6473005024999999	0.44062253991379363
O	-2.6292792830344824	1.3583443124999999	-0.41605580008620635
O	-1.2299652550344824	1.5469912275	-0.5231699670862062
O	-0.4530265590344824	1.0414653015	0.39555228991379365
O	-1.2464994250344823	0.5354877874999999	1.4220628299137936
O	-2.659971932034482	0.6646428284999999	1.5084630299137936
O	1.7762522409655177	0.4521575614999999	0.9132599199137937
O	2.6434003909655175	-0.015281501500000072	0.0626856599137936
O	3.134300880965518	0.8741258544999999	-0.9831164060862063
O	-0.9978771970344823	1.4233872635	-1.9038316560862063
O	-2.0808757200344825	-2.0570299525	-1.9264236670862063
O	-0.6453783690344823	-2.5952535525	-2.0051931400862064
O	-1.5055277820344823	-0.9933951125000001	-0.9992176476862062
O	-3.032740889034482	-2.0558717725	1.7077226599137938
O	-2.1462119770344823	-3.0051403225000004	1.2996736299137934
O	-2.684882494034482	-4.048240412499999	0.6016883999137937
O	-3.974761789034482	-3.8344542325	0.23582317991379365
O	-4.232184709034483	-2.4649290925000003	0.007577898913793679
O	1.6390901109655176	0.19099139149999989	-2.9669998200862064
O	1.4083723709655178	-1.1481315925	-2.8758427900862062
O	1.8061299109655176	-1.5676403625000002	-4.096899870086206
O	1.0863897209655176	-0.9189918525000002	-5.071648810086207
O	0.9068930109655176	0.4212085164999999	-5.148775460086206
O	1.1110747809655175	0.9369158174999999	-3.9034335600862065
O	-2.2332836730344825	-0.8380531825	-2.092265910086206
O	-2.3443411490344825	0.21402730749999987	-3.1361528900862066
O	0.4941861509655179	-1.8556540225	-2.019223630086206
O	-0.09374241903448222	-1.4561727825000004	-0.8854393753862063
O	-1.8249607030344823	1.5679991574999999	-2.824471420086206
O	-1.3160958160344824	0.05566850149999991	-3.931154470086206
O	0.2149692309655178	14.2538842275	-5.952636410086207
O	11.304287170965516	-5.2703403425	-5.353623850086207
O	11.613747570965518	-1.8622027225000002	-9.195520880086207
O	8.716935970965519	-4.0378301125	-10.482466090086206
O	3.151118570965518	-10.6069639725	-0.25163475208620634
O	0.28801430096551783	-11.334596272499999	-2.700694640086206
O	1.8454502309655179	-9.2571101325	-5.571667940086207
O	2.231775760965518	-6.3630723725	-3.2474098700862064
O	-1.3602730630344824	-6.9614648325	-2.1633380400862063
O	-2.8168794620344824	-7.0635552624999995	-5.622330180086206
O	-0.9351111390344823	-4.094101032499999	-6.634555050086206
O	-2.7391346890344823	-2.2471423825000003	-4.013969850086206
O	-5.9606279690344826	-2.6165640225000004	-5.243422180086206
O	-5.273117919034482	-0.8646041825	-8.452860810086205
O	-4.113737719034482	2.4062964175	-6.842340020086207
O	-6.903502209034483	2.0459184875	-4.100423970086206
O	-9.530098489034483	2.0667970575	-6.731736820086207
O	-7.793826589034483	5.0220090275	-8.504402500086206
O	-7.750912569034482	6.9083879575000005	-5.160806550086207
O	-11.429466789034482	5.9672588475	-4.553009630086207
O	-12.14701712903448	7.7421390375	-7.908003050086206
O	-10.709577129034482	4.4683641675	3.195432979913794
O	-7.0890418790344825	7.031520377500001	1.6290451699137938
O	-5.251288329034482	6.6284803775	5.014517939913794
O	-1.3228566840344822	8.2494430675	2.5553914099137938
O	0.26758341096551774	9.7091272175	5.679726829913793
O	3.4173946809655176	10.0226238075	1.4099384199137934
O	4.877474300965518	8.4247621575	4.587809409913794
O	6.115620580965518	5.1721986275	1.9551280899137935
O	6.187026160965517	6.7421448075	-1.5166296760862064
O	4.622528080965518	4.6867812575	-4.2470359500862065
O	3.8261731409655173	4.9619417375	-8.086105020086206
O	3.2031195709655176	8.6413822675	-8.098793940086207
O	6.251133490965517	9.182073667500001	-5.895695230086206
O	8.741209670965517	7.2690156375	-8.066850160086206
O	9.270767570965518	4.4342795275	-5.553750520086206
O	8.88367077096552	1.0538230634999999	-0.04425412708620635
O	10.222002170965517	-4.575740242499999	4.065393829913794
O	6.445504400965517	-4.4311586025	4.555148699913794
O	6.868708850965517	-5.6317014025	8.154065499913793
O	8.90501087096552	-8.573277792499999	6.729323079913794
O	5.934017500965518	-9.9379106725	4.756271859913793
O	0.24815595096551757	-9.5939679725	5.077905089913793
O	3.012338730965518	-8.0891917925	7.208924909913794
O	-1.3396389730344822	-4.4261633725	7.0293689799137935
O	0.9422290609655177	-1.2676216925000001	7.000169569913794
O	2.3978995309655176	-0.9410331725000002	10.408285459913794
O	-0.8148346490344822	3.2763911474999996	9.318992259913793
O	2.8428743009655175	4.1518909375	9.774633359913794
O	2.118784910965518	4.4675553875	13.520993059913794
O	-0.8258510290344823	6.8076999875	12.691591659913794
O	1.0987556109655179	8.7186453875	9.989557459913794
O	-10.115009929034482	1.0671360664999998	8.939046089913793
O	-7.670848169034483	-3.3147197125	7.883744379913793
O	-9.265747179034483	-8.691873832499999	4.887620219913794
O	-5.959271319034483	-16.8630201725	1.6287548699137937
O	-6.4305488690344825	-14.2192776725	-5.138548290086207
O	-10.518062259034483	-8.4437659925	-4.312264590086206
