38

O	5.219178983169327	19.484287379643273	18.519661040066705
O	6.035887232166468	21.400745319505646	19.789054723436035
O	4.160876016410095	22.65570471810243	17.177690437421163
O	5.462835987084201	22.590199325877926	19.92206918288002
O	6.017718813361258	19.146816167886456	20.11066890041324
O	5.378733654393717	20.123447906244913	19.743781860875284
O	5.654682233022919	16.518995691986483	18.521758604374675
O	7.12868692115147	21.363276503478296	18.91586672118634
O	3.8171737218156774	16.74786834008207	17.559972361087468
O	6.1948812835178595	23.648902512621802	19.41825373839987
O	6.854942454857825	23.69104061191093	18.245379758112666
O	6.697498881502778	24.343270697824316	17.018387744778263
O	7.585253220443634	22.50586068339843	18.30913889315807
O	6.802338065782848	23.20812222809543	16.242138872967963
O	6.261693202656638	24.33166461273846	15.64907962997331
O	7.027730577706249	23.967381433357314	14.361058458014366
O	4.325221016613842	19.909511942299638	17.643937680470785
O	5.335993454347504	20.68346116230282	16.800392511410738
O	4.64589569476656	21.736899050265595	16.291679274922007
O	6.155192695333406	19.74001765531983	16.142322094712036
O	4.745943419870168	21.57703394528831	14.900399698567563
O	5.25565958653491	20.433387357935906	14.335317444914303
O	5.495970059667491	19.255899698193232	14.963157281951377
O	4.695224319954972	17.950543885641217	15.360542099293877
O	4.074375752508533	27.35917985512617	17.43436379264373
O	4.507994472820593	26.31070405750361	18.416950717407108
O	5.706067347859678	17.169410350787395	16.115653903277206
O	6.3948346760684185	16.5061817999605	15.002045818981735
O	5.2145319963100025	16.684599899141297	17.36692600178863
O	5.782948615672983	16.606006672776044	13.594505131445986
O	3.887788251581997	25.011403489969435	18.343830000084196
O	3.706928129178353	23.889992091155438	17.485238600895638
O	8.399902497347012	25.075563807474218	15.774920073365912
O	7.890728987826562	22.496717813114415	15.631851014776641
O	8.795579273160074	23.664707056291014	15.969780092814702
O	8.16860716168156	24.92768599248388	14.345847591724159
O	7.257380530940951	25.606995425654336	16.64680700123537
O	7.801899639783027	22.651685984553612	14.166490025591052
