36

O	4.967417951497797	19.203632896259823	9.714244962668515
O	6.249374516815124	19.26659424723666	10.442443603490393
O	7.141993346988263	19.870413539584284	9.735421947203331
O	6.458798475206314	19.57741488994131	11.871743276377957
O	5.503870994631081	20.640116261438084	12.21010402803941
O	5.585431403778192	20.767170330066918	13.609696313323685
O	6.107822118163332	19.559807343420132	14.462138223295485
O	5.679184176054968	18.568722499669867	13.753316586987733
O	6.534318721529883	18.549363357624074	12.624401378004674
O	6.361180907958005	20.211055419406108	15.608617709575233
O	7.100002051084599	21.24758002455769	15.159655784695465
O	6.947539349609971	21.250748779109703	13.825078462668648
O	7.4158927968588335	22.328310981783353	15.900575856693736
O	7.881977328328434	23.393392408552298	15.201961471969483
O	8.121986512730693	23.18760846004805	13.834582180227784
O	7.711008814108299	22.11289751378766	13.116809628932375
O	4.390797797252752	20.52381955205232	14.355590002061401
O	6.036580401912509	21.69292306628703	11.671193966890222
O	7.02929553030229	17.365595476163932	12.171065377451017
O	8.355678631636856	21.422072133679684	12.081127002185395
O	8.058261018933981	24.678778243179558	15.59913051318189
O	8.680436359321014	25.351887287885557	16.630065614626034
O	6.201444194864948	22.6807080164339	16.660996349973665
O	5.579153431568214	21.73433826440905	17.106802825702403
O	5.140161575128769	23.12045174552342	15.709676454707353
O	5.283914930485519	24.468746570447347	15.527467764144596
O	5.396269492428351	25.052011325807413	16.885845201670392
O	5.596888818133454	26.358873237784042	17.112811562055214
O	5.648455082152118	26.71640915359699	18.441648660063716
O	6.413984063061662	25.917974791752147	19.227850636170537
O	6.682180010227352	24.62603824061046	18.870409456461363
O	5.78561542169124	24.20012763239711	17.89620915925537
O	4.675684019404761	27.6004417421877	18.964523428395847
O	4.028440824383813	28.35408058397016	18.02265963064366
O	4.632172919579799	28.437323931264842	16.796666067803535
O	5.192401855389925	27.23530341448437	16.213528487077216
