77

O	-0.5672027190660712	-2.8169867353392863	1.1995160472535713
O	-1.7327696750660713	-0.9035027553392863	1.5721722072535713
O	0.47843608593392883	0.1185324232607137	-0.7945074227464288
O	1.0547824659339287	-1.9222295853392863	-0.7020591707464288
O	-1.6954502360660713	-0.04298436933928629	-0.9572463827464288
O	-0.7777205290660713	-1.9286938153392865	-1.7015975227464288
O	2.376531185933929	-0.5220464823392863	-1.9361352427464287
O	-1.5155163740660713	-0.4900968943392863	-3.155408042746429
O	1.336925765933929	0.3171234256607137	-1.8273908827464287
O	2.2628608859339288	-1.7462163153392865	-1.3064788837464287
O	-2.0220014540660713	0.3353568516607137	-2.205594662746429
O	-0.9016436494660712	-1.6738043953392863	-3.011211972746429
O	0.41138090593392873	-0.9368329953392864	0.07309762925357122
O	-1.5776969910660712	-1.3591516053392863	-0.6697617457464288
O	-0.8725639245660712	-1.5184724453392864	0.6405502572535713
O	3.5456347859339292	-0.19069131433928632	-2.573699572746429
O	-1.823978339066071	-0.06785143033928631	-4.373303702746429
O	1.1794540459339289	1.1183280846607138	-3.575579342746429
O	3.0202934159339287	-2.961458205339286	-2.460530132746429
O	-1.7900580150660712	2.1490880346607137	-2.515722412746429
O	0.37532313593392874	-2.070928525339286	-4.314053692746429
O	10.664988315933929	-3.052918425339286	-5.5937635027464285
O	12.105061715933928	-4.164685935339286	-2.1939829327464286
O	10.32121781593393	-1.2413204353392864	-0.4482160296464288
O	11.31355991593393	2.094057514660714	-2.008292662746429
O	12.86325891593393	3.5626238346607138	2.884986787253571
O	9.163249615933928	4.361788244660714	3.249582777253571
O	-4.315172324066071	0.3083664866607137	12.75777401725357
O	1.623581885933929	-9.539605715339286	13.13525791725357
O	-9.224374394066071	-5.261306145339287	4.327643217253572
O	-10.330428224066072	-5.391774265339286	0.6235536372535713
O	-9.235337884066071	-9.043051735339287	0.39055301225357125
O	-5.926400054066071	-8.106251445339286	2.024607877253571
O	-5.325393014066071	-5.3337962053392864	-0.4939581776464288
O	-5.633391514066071	-7.946215055339287	-3.303640662746429
O	-2.7992260240660713	-10.148297085339287	-2.131309172746429
O	-0.4565053580660712	-7.254041645339287	-2.0076772127464286
O	-1.9469512040660713	-6.000338245339287	-5.376357062746428
O	-1.0440758644660713	-9.198466075339287	-7.162744992746428
O	2.420538105933929	-9.227902255339286	-5.5649877127464284
O	2.8561146659339287	-5.559326965339286	-6.774375872746429
O	1.668465275933929	-6.567858825339287	-10.27399392274643
O	4.508611855933929	-9.163505695339287	-10.28208355274643
O	7.015195385933929	-6.506958645339287	-9.16557945274643
O	-0.07216058106607126	-1.6565539953392863	-13.98351818274643
O	-2.584216804066071	0.039064770660713705	-11.69200188274643
O	-1.3804486800660714	3.507051344660714	-12.565775682746429
O	0.7643144559339287	0.7527309856607136	-8.29330443274643
O	-0.9460931219660712	4.043788674660713	-7.229669722746428
O	2.0469836859339288	6.065839004660713	-8.05685015274643
O	4.2669538059339285	4.0661209946607135	-5.833202832746428
O	1.6080804759339289	3.9455655346607137	-3.100031742746429
O	1.863045735933929	7.546665814660713	-2.654214302746429
O	5.428058025933929	6.755881964660714	-1.5406230527464286
O	3.927524465933929	4.846378374660714	1.4291593372535714
O	1.354774475933929	7.578353014660713	2.293491477253571
O	-2.428515294066071	7.047460164660714	6.535250227253571
O	-0.5434894060660712	4.377978074660714	4.648060917253572
O	2.233957605933929	1.8867930346607136	5.3643813572535715
O	1.3440409059339289	-1.7856400153392864	5.1716612772535715
O	3.042727595933929	-5.250227035339287	5.352458127253572
O	6.554571085933929	-4.209670025339286	4.3271890472535715
O	6.258295615933929	-0.9773601353392865	6.3117044772535715
O	5.542578925933929	-2.772525645339286	9.595919877253571
O	2.0043499759339287	-1.4230897453392863	9.93235471725357
O	0.3631929459339288	1.9578196146607136	9.36644066725357
O	-3.3433904540660713	2.1788524346607137	8.60297439725357
O	-4.9027427940660715	5.548539174660713	9.245600517253571
O	-6.775261194066071	7.376676954660714	6.520460047253572
O	-10.019818584066071	4.2021496546607136	9.69985421725357
O	-10.28995308406607	3.5130838646607137	5.974248687253572
O	-15.525205084066071	1.6021790746607136	6.383892807253572
O	-8.535145774066072	4.617079104660713	-0.6684750007464288
O	-5.451866174066071	7.738366544660713	-3.606122702746429
O	-4.705123214066071	9.757691714660714	-0.4473791001464288
O	-0.7328497910660712	11.151321514660713	-2.885292982746429
O	-0.6537573620660713	14.352419914660713	-0.8116367267464288
