101

O	-3.20350280330303	-0.7934335372121208	4.925364359771212
O	-3.13595775330303	-0.9475280772121208	3.5529308497712115
O	-2.25209288330303	-1.835352217212121	2.9023826097712115
O	-2.67903245330303	-2.824232307212121	4.197692239771212
O	-2.57445788330303	-1.6880692972121212	5.698784239771212
O	-1.1335082203030302	-1.027690717212121	2.0519136797712116
O	-0.9974010523030301	0.2852868527878789	2.033246529771212
O	0.033208033696969785	1.024636612787879	1.6730862097712116
O	0.2791047826969698	0.2631988327878789	0.5298423407712117
O	-0.2430314053030302	-0.9782060972121212	0.8827525617712116
O	1.4463479066969698	0.6719053277878789	-0.4451484162287883
O	2.51598131669697	-0.25975318721212104	-0.9609517002287884
O	2.37261482669697	0.291295202787879	-2.2646757802287882
O	3.46225902669697	-0.028673857212121012	-1.9804257602287882
O	2.48319676669697	0.09130718278787908	0.7248454627712116
O	3.0441373766969697	1.036513345787879	1.7770951797712116
O	2.9829016666969697	1.079816799787879	3.1854303597712117
O	1.67829770669697	0.481760627787879	3.2767228997712117
O	1.55300578669697	-0.7473146772121209	3.126607799771212
O	1.9704550266969698	-0.668590027212121	1.8027824397712116
O	2.81655504669697	1.413723203787879	4.573801239771211
O	0.3970454406969698	-0.9321913372121209	4.132343249771212
O	0.5412024866969698	2.191695567787879	2.370571819771212
O	-0.2076837723030302	2.531247862787879	3.5962764397712115
O	0.2621668096969698	3.528336342787879	4.494799379771211
O	1.4044716366969698	4.320076482787879	4.4282142197712115
O	2.15505854669697	3.908816022787879	3.4477679497712117
O	1.3298882966969698	3.018929412787879	2.7587953797712115
O	1.8661392266969696	1.5714963387878789	5.513632379771211
O	3.5480026066969694	2.131662851787879	5.259961879771212
O	1.8639711666969698	1.570303127787879	5.513126279771211
O	0.15423542769696985	-1.966705497212121	4.847836669771212
O	-0.3276548153030302	0.036799462787878934	4.746436649771212
O	-0.3288542753030302	0.03865097278787899	4.743306449771212
O	1.92190184669697	4.508655152787879	5.694671179771212
O	-9.07337060330303	-9.149955367212122	10.555538339771212
O	-6.4838693933030305	-7.366533617212121	12.501660939771213
O	-6.59927692330303	4.923764522787879	8.193806129771213
O	-3.31117598330303	5.141775312787879	10.266707839771213
O	-3.31807310330303	1.444347494787879	11.401104939771212
O	-3.9411823633030303	0.3362987837878789	7.981815679771212
O	-1.4141703923030302	2.525993712787879	7.404411859771212
O	1.3840806866969697	0.812257570787879	9.985669929771213
O	0.5912178966969699	-2.7405816972121206	8.876013659771212
O	1.4489418266969698	-2.7635686272121207	5.155954029771212
O	5.16648198669697	-1.4281451172121211	5.890104849771212
O	6.0239166666969695	-4.608807377212121	7.095469439771212
O	4.812870296696969	-6.212769107212121	3.7057335997712118
O	6.61468115669697	-3.593151467212121	1.5047891697712117
O	9.91790474669697	-3.924097087212121	3.1782326097712117
O	9.397118026696969	-7.668773397212122	2.8831613097712117
O	8.701106996696971	-7.250728207212121	-0.9013676302287883
O	11.764363746696969	-4.937211217212121	-1.3366144602287884
O	13.806393046696972	-7.803372797212121	0.13319971287121168
O	12.145976246696971	-10.24234016721212	-2.325126570228788
O	11.510773046696968	-1.2782383672121211	-6.608986430228788
O	7.94805009669697	0.348414360787879	-5.811083930228788
O	5.86672586669697	-3.684873507212121	-6.0365194702287885
O	2.97944759669697	-2.102547517212121	-7.811490040228788
O	3.27453051669697	-7.494118917212121	-8.765158230228787
O	0.5542446666969698	-6.063871977212121	-6.576418300228788
O	-1.6243062933030301	-6.054911077212121	-9.727297450228788
O	-1.27268384530303	-9.88159676721212	-9.612966570228787
O	-3.1432910833030303	-9.780920667212122	-6.269252310228788
O	-6.624635843303031	-6.710812187212121	-3.109740420228788
O	-5.36755251330303	-9.92863286721212	-1.4973115502287884
O	-3.2876175033030304	-9.12446986721212	1.7585397097712117
O	-1.4602933443030301	-11.423704467212122	4.199363259771212
O	-3.74249130330303	-14.236688067212121	0.25459446277121167
O	-7.26397863330303	-11.276553467212121	3.6219627497712117
O	-8.941936573303032	-5.482499907212121	1.6220730797712117
O	-9.92587611330303	1.700999463787879	0.8736548757712117
O	-11.635454853303031	4.437126202787879	-1.0791464202287884
O	-13.60389685330303	5.139223162787879	2.199353649771212
O	-10.572863953303031	6.186965352787879	4.165311839771212
O	-5.430114413303031	11.80638633278788	2.149241939771212
O	-5.40232733330303	8.044145042787878	2.9076181097712115
O	-8.30451790330303	7.144636072787879	0.6615823297712117
O	-6.40845116330303	8.296882052787879	-2.4933334202287885
O	-3.59941271330303	5.967061052787879	-2.272648170228788
O	-4.94685700330303	2.755931852787879	-3.9652236102287883
O	-7.14617689330303	3.853001802787879	-6.465474480228789
O	-4.42871661330303	4.639021262787879	-9.158608150228787
O	-2.9289071733030303	1.123048679787879	-8.523982260228788
O	-6.34038329330303	-0.532073877212121	-9.064047020228788
O	-6.78838395330303	1.579800385787879	-12.206821060228787
O	-3.34976716330303	0.38705704878787894	-13.440626960228787
O	-3.9366061133030303	-3.219901587212121	-12.309099560228788
O	2.0713549366969697	5.456884202787879	-10.241291860228788
O	5.13706003669697	5.660631082787879	-8.029886880228787
O	2.39597832669697	7.669443712787879	-4.324738280228789
O	5.47519769669697	9.846909562787879	-3.612636160228788
O	0.9695585066969699	11.54792743278788	-1.1803170802287883
O	3.80141524669697	10.643413442787878	1.0727332427712117
O	5.18196501669697	14.02313703278788	1.2046887197712117
O	1.69454746669697	12.660436932787878	5.123090289771212
O	5.2026998266969695	13.663226632787879	6.151788759771212
O	6.54423023669697	7.422503582787879	10.889851139771212
O	7.871560896696971	5.524277712787879	7.928456139771211
O	9.87754084669697	2.306803272787879	8.218617279771212
O	11.48668504669697	2.946718212787879	3.0413191197712117
