98

O	0.23892283032307726	1.3388511931800002	-4.057047202776923
O	0.07570894032307707	3.3839653502800005	-2.520992462776923
O	-4.995625069676922	-5.44420374972	-0.9481592211669232
O	1.2639158203230774	2.78838837028	-0.6355673507769232
O	-6.095648309676923	-3.0863416197199998	-0.6303042307769231
O	0.2564435103230771	-0.62590402972	-2.772052962776923
O	1.2546201203230773	-0.6385852697200001	-1.1308417477769233
O	-5.757326579676922	-3.11379738972	1.691765817223077
O	-6.893166199676923	-5.41124380972	0.12186729722307688
O	-2.221230179676923	-2.55626571972	-2.003541262776923
O	-3.916275599676923	-3.4714513397199998	0.32619759722307673
O	-1.694802728676923	-0.7229643397199998	-0.8719592244769232
O	-0.2497604806769228	6.14652658028	-2.345094942776923
O	0.4965769603230772	5.78973412028	-0.2061210747769232
O	-0.38305942967692286	7.46887478028	-2.062369782776923
O	0.5029993303230771	7.16177919028	0.05986084722307694
O	-1.7230275106769228	-3.1788874597200003	-0.7861231347769232
O	-2.187176858676923	-1.4389301197199997	0.24997664722307678
O	-0.7733359266769229	-1.4095179297199998	-3.236426582776923
O	0.7016857203230771	2.23955660228	-2.898361822776923
O	-1.804808677676923	-1.2956019697199999	-2.144609462776923
O	0.7420200203230771	5.52383919028	-1.5595546267769231
O	-0.4409009126769229	7.81317790028	-0.7339366607769231
O	-2.7582928296769227	-2.72997021972	0.12740888722307686
O	0.7070157903230772	1.5387321072800002	-1.657746791776923
O	0.956880600323077	4.0792065402799995	-1.7493002657769232
O	0.3517962603230771	0.09397854028000019	-1.5151667627769232
O	-5.500594849676923	-5.13654209972	0.19936819722307686
O	-5.216751619676923	-3.6510526497199995	0.42032887722307677
O	-0.4660114246769228	9.27569130028	-0.5119600767769232
O	0.8517583803230773	9.67845403028	-0.7219982627769231
O	-0.7217936786769228	9.54145773028	0.7612785572230768
O	-1.2012135186769228	9.82685708028	-1.4906548827769233
O	-1.037461150676923	14.98585120028	0.02321408222307686
O	-6.939394199676923	14.32697590028	1.703555567223077
O	-2.237649779676923	8.91030121028	8.756430547223077
O	-2.583210249676923	5.11062358028	8.561551627223077
O	-6.190542629676923	5.3471575302800005	7.3380714672230765
O	-5.293702409676923	7.91810672028	4.704217947223077
O	-2.3859576096769226	5.76936905028	3.4581674372230773
O	-4.592583129676923	2.71011594028	3.412093917223077
O	-7.203726469676923	4.64073940028	1.381207547223077
O	-4.504666269676923	5.5312978502800005	-1.1792971177769231
O	-3.617124999676923	2.12374369228	-1.2528752047769232
O	-7.055808799676923	0.9817845662800001	-2.158024462776923
O	-7.231728239676923	3.52913226028	-4.951827342776923
O	-3.995981079676923	2.21005464828	-6.345397112776923
O	-5.1027439096769225	-1.4580289897199998	-6.146828682776923
O	-8.411270239676924	-0.6297355897199997	-7.8504538727769235
O	-6.519290219676923	0.9615089202800001	-10.743386502776923
O	-4.107621519676923	-1.9658786097199998	-11.030320442776922
O	-6.930541289676923	-4.52633925972	-10.889177372776922
O	-5.477884339676923	-2.58791696972	-15.800553642776922
O	-3.0325967996769227	-9.97130729972	-6.237715072776924
O	-0.3647246056769229	-12.49042529972	-7.254897232776924
O	0.17450439032307719	-10.30440959972	-10.318903032776923
O	-0.004602109676922872	-7.12298991972	-8.262012562776922
O	2.744663550323077	-8.223093219719999	-5.8629474827769235
O	5.286513320323077	-4.23849280972	-7.320020702776923
O	10.454064810323077	-0.98444594972	-5.522298132776924
O	15.431460110323076	-1.80039206972	-0.9247727502769232
O	14.396336810323078	1.5737698512800002	0.5023775172230768
O	10.856109510323078	2.1273824452800003	-0.6742339087769231
O	8.376587890323076	2.22025654328	-3.580716522776923
O	7.082199900323078	4.63072789028	-6.202819372776924
O	3.496592640323077	5.77578851028	-5.807812852776924
O	1.0390278603230771	8.139131110280001	-7.494461902776924
O	1.9552575703230772	7.24692711028	-11.019837242776923
O	5.653255810323077	7.73431236028	-10.377416162776923
O	5.379205440323077	11.11573154028	-8.772816032776923
O	5.913763020323077	10.02105070028	-5.152604562776924
O	8.211840420323076	7.62846969028	-3.305193982776923
O	7.123552570323078	6.35805127028	0.09714056722307685
O	9.969141510323077	4.86796568028	2.222547887223077
O	10.145757310323077	1.37247075448	3.653211817223077
O	5.759127590323077	2.27830540328	6.449782757223076
O	7.387313960323077	0.19328408028000021	9.245266057223077
O	6.875583230323077	3.09438122028	11.685286457223077
O	3.0929775103230774	3.08444365028	11.254329257223077
O	0.9699949803230772	1.47191967988	13.945444557223077
O	-0.15270874967692283	-2.11603713972	13.609393857223077
O	-1.767912580676923	-3.58980561972	11.658266357223077
O	-0.9328412106769228	-1.10229284972	8.900856637223077
O	2.8401208303230776	-1.44838177972	9.439338757223078
O	1.1820320403230773	-4.84090388972	5.178275027223076
O	4.3426480903230775	-4.0173741197199995	3.260158617223077
O	6.1182213303230775	-7.49520544972	-0.23705415177692313
O	9.417385610323077	-5.61998331972	-0.008515076776923203
O	-1.4801102256769227	-13.56048829972	-1.2019324437769232
O	-2.190825565676923	-10.90133839972	2.790102107223077
O	-5.887095549676923	-11.85982959972	2.561748497223077
O	-4.427277409676923	-9.59588389972	7.241217297223076
O	-7.023581799676923	-7.8007766497199995	5.078641977223077
O	-9.789042939676923	-9.75048249972	6.947691317223076
O	-8.352013219676923	-8.64595829972	10.265782757223077
O	-8.236375239676923	-5.00813334972	9.150487657223078
O	-12.883458789676922	-1.91029888972	1.3973121572230771
O	-13.731184289676923	-0.42450231971999997	-1.9860470927769232
