96

O	6.001876952089655	-4.002465760913793	2.0888057346896547
O	6.190287562089655	-5.208437860913794	2.258871744689655
O	4.818796922089655	-3.6701890909137935	1.2079101546896547
O	7.141502772089655	-3.2650050909137933	1.854115754689655
O	5.359222842089655	-3.3020192509137933	-0.08536353231034519
O	-0.9546602249103452	-1.506392220913793	0.8589165546896548
O	5.436011472089655	-1.9359921509137932	-0.5772570273103452
O	4.183474482089655	-2.595751790913793	1.8929387446896548
O	2.7434438220896546	-2.924548910913793	2.1385715146896547
O	1.923304982089655	-2.1566906409137934	2.9104585246896546
O	0.6555983100896549	-1.9434430909137932	2.5306580246896546
O	0.24362990408965488	-1.9661359709137933	1.3297598146896548
O	0.7181252320896548	-3.2608435309137933	0.9501652046896548
O	2.077412672089655	-3.550966940913793	1.1531930346896548
O	-1.8500233579103451	-0.522118950913793	1.0865595146896547
O	-1.8669639679103451	0.8500266160862069	0.5915172906896549
O	-2.094155567910345	1.992214609086207	1.5225012346896547
O	-0.4221744479103451	-1.4697599609137932	3.4779699546896548
O	2.791700772089655	0.26027371708620695	2.2054428146896545
O	2.814401882089655	0.857968844086207	0.9757051546896548
O	1.105003992089655	1.825118329086207	2.463277764689655
O	5.403141282089655	-0.8477429909137931	0.20992801968965483
O	5.895637822089655	0.31308119708620696	-0.2627900294103452
O	5.843339402089655	0.696361619086207	-1.5366835653103452
O	5.428491852089655	-0.2773462419137931	-2.386207035310345
O	5.104255232089655	-1.466487710913793	-1.8656344653103452
O	2.646735722089655	0.402441157086207	-1.2502937853103453
O	2.720973672089655	-0.878338430913793	-0.3356039953103452
O	2.521257672089655	-2.141507710913793	-0.9814625883103452
O	1.331459962089655	-1.527400830913793	-1.4421302053103453
O	0.6562908390896548	-0.212309868913793	-1.2522030053103452
O	1.774067402089655	0.7383344380862069	2.9519439946896546
O	1.370891402089655	0.857594700086207	-0.7870862713103451
O	1.0340641320896549	0.042406440086206976	3.970030594689655
O	1.448918512089655	1.067889290086207	0.5327164106896548
O	1.124127082089655	2.237510199086207	1.1318236246896547
O	-0.12903968001034513	-0.14075871591379308	3.221024934689655
O	0.7593610740896548	0.760671713086207	4.917282854689655
O	-9.235626577910345	-7.496314380913793	9.192749564689654
O	-13.203363267910346	-6.044735490913793	3.836177234689655
O	-4.059904447910345	12.348851619086206	0.19904824568965482
O	-6.558771207910345	11.677130019086206	4.603101594689655
O	-3.002548407910345	11.906362519086207	5.889863524689655
O	-4.629026777910345	13.397650419086206	8.984456884689655
O	5.418560872089655	9.005967789086206	-4.033077035310345
O	8.018675272089654	8.550450309086207	-1.2507449653103453
O	5.524559952089655	9.407248629086206	1.5663711146896548
O	3.2015836420896546	6.776339419086207	0.21329556168965483
O	6.075678392089655	4.521157449086207	0.1236026716896548
O	7.314420162089656	5.011223679086207	3.560771874689655
O	3.8654285320896546	4.630422519086207	4.841167234689655
O	4.0034520520896555	1.423118822086207	3.6320507846896546
O	6.536225222089655	-0.039690092913792996	5.3494993146896554
O	4.949821502089655	0.370459354086207	8.608228004689654
O	1.895325952089655	-1.733143830913793	7.576037754689655
O	4.090653382089656	-4.228981980913793	5.841751224689655
O	6.113613252089655	-4.950352640913793	8.875856424689655
O	2.8357205620896546	-5.163700620913793	10.836350434689654
O	1.548582042089655	-7.730959760913793	8.323461134689655
O	4.884640852089655	-9.622103280913793	8.461649344689654
O	4.242651242089655	-9.966723380913793	12.253595134689654
O	5.2425502420896555	-11.245597280913794	0.7169763096896549
O	0.8277259550896549	-10.185419480913794	2.015965664689655
O	-0.1537028841103451	-9.829611480913794	-1.7121351553103452
O	-4.178847067910345	-7.652343470913793	0.019474943689654828
O	-6.420408277910345	-8.918600590913794	-2.847848115310345
O	-8.896261237910347	-5.463167810913793	0.3215713736896548
O	-8.973065207910345	-4.690817720913794	-3.450073595310345
O	-7.663315587910345	-0.658196910913793	-2.2532992153103453
O	-8.585759757910346	-0.3366040389137931	1.4207392846896547
O	-5.893047667910345	1.1421341910862068	3.7105644246896548
O	-5.596342197910345	1.894277599086207	7.502657174689655
O	-7.616023007910345	-1.0323973209137929	8.674562424689654
O	-10.296207767910346	-0.2712731479137931	6.105079114689655
O	-10.765671367910345	3.410527079086207	6.957456624689655
O	-9.194549787910345	4.685796239086207	3.7114008846896547
O	-6.732314937910345	4.586142709086207	-2.297942065310345
O	-3.991780817910345	7.6649304390862065	-7.979509725310344
O	-1.352155107910345	5.054800629086206	-7.492983615310345
O	-0.8807507559103451	4.735323819086207	-11.241304065310345
O	-0.36415189591034514	8.541462559086208	-11.313332865310345
O	2.787729062089655	8.388811179086208	-9.155735415310346
O	6.721193432089655	4.484830489086207	-7.876119625310345
O	3.6329324120896547	4.351741729086207	-10.084032025310346
O	4.439256912089655	-0.772416240913793	-7.7404717353103445
O	0.6196072970896549	-1.556921730913793	-7.489045975310344
O	-0.7067626749103452	-2.147633510913793	-10.810230365310346
O	-1.209786997910345	-6.540975750913793	-7.678625035310345
O	-4.535183657910345	-5.084125590913793	-8.894061685310346
O	-3.6194051279103454	-10.330269480913794	-9.847825675310347
O	-6.330898097910345	-9.356112050913794	-7.317677535310345
O	7.045117692089655	-10.893525880913794	-5.786896955310345
O	8.278423292089654	-5.935900540913793	-6.723263435310344
O	13.276702632089654	-2.140349170913793	-5.208743545310345
O	16.399582932089658	6.852167569086207	-5.3250721753103445
O	14.855217832089654	7.199635889086207	1.8845183146896547
