31

O	2.189816328431501	30.153875909591143	18.279863520292235
O	6.125736217631244	23.21266355924417	16.641216213237346
O	-1.7012050421154825	27.78513029093252	20.413848653108023
O	8.712604228022638	24.969889364958732	18.244888977531442
O	6.11292846725466	25.477901766804962	18.03109848086651
O	-1.0262950773165773	29.310504857381826	19.01982285983617
O	7.4913074319575035	24.71414681859465	12.97727868875192
O	8.290559535347766	23.36168820239539	16.340181904952846
O	8.204795897442224	23.754888632446786	12.153235232105716
O	1.2982804125214837	28.562672036898785	19.87185095759789
O	6.437578831106083	23.919079231873877	13.498149201226585
O	8.161045356645344	22.365251383790014	12.489646899095398
O	3.5735690167094063	25.641981153724743	19.257236104681756
O	4.636614827788659	26.603005099186156	19.490914320076076
O	5.318276218609644	26.108105393577574	15.96215864404142
O	6.425906297350787	25.771897208182644	16.745208715237215
O	3.1386839714773567	26.47356916550313	17.317637581931717
O	1.9536917540553396	28.72859283057388	18.665503494835512
O	1.1498221084919589	26.510244265081553	18.857102425883305
O	5.956706466615176	24.12827674773949	18.753248530316817
O	7.945726457835393	23.928529270195504	17.42511524414229
O	2.6103059670208477	26.492769325213715	18.653166219069742
O	4.50706639182874	26.6731527281334	17.02938369173777
O	6.969068673995255	23.14298047373876	14.43026284905628
O	5.225148527043397	26.414615478262924	18.196737042047978
O	7.68434411551669	22.105196824734467	13.791376539105316
O	6.733817049580024	23.335095374527835	17.837872133377275
O	7.138981184757476	23.1053862906518	15.80652192740794
O	0.48681846552003183	27.472380635598313	19.75724994092907
O	-0.8496671383793917	27.996621521675443	19.47736421270399
O	7.211551082315843	20.704887770705668	14.710584441032745
