42

O	0.20857217020226226	25.666790622819207	18.973808894450848
O	-0.08596218227156438	25.841792710892346	20.203368277590425
O	1.6415562559079184	25.882794202906354	18.693726353799924
O	-0.6006447175738083	26.483752680439594	18.147906701071502
O	1.881497140473769	27.30531658543304	19.244341897991795
O	7.627820253028421	24.030744755815853	17.545195392647067
O	3.2712928182065713	27.417288670683348	18.60608470362894
O	2.6448760178348696	25.189644451819575	19.5451370142118
O	3.9560033881376433	25.06113552160031	18.787531829324745
O	4.142812912530971	23.758775222016997	18.315415072494687
O	5.446354372825534	23.296498796538128	18.0670682435096
O	6.319972480010732	24.323051146511563	17.9035020540506
O	6.26351903731955	25.246077302170583	18.955113526862032
O	5.050356641651502	25.335778001853306	19.63597729515148
O	8.306837390319185	25.233558005591668	17.120732167904652
O	7.9088486640534335	25.396469541924574	15.658919618864008
O	6.464232779180606	24.98956338798833	15.63334307455732
O	5.845312608122805	21.90769693165382	18.56056423858048
O	6.6047271933070535	20.50586975781463	16.277363231365282
O	7.086425625617444	21.662089554186082	15.59793269401591
O	4.597506089066455	20.804120292718714	15.279653005090326
O	7.403912834796112	21.49881095910447	13.193103615432086
O	8.403205630293492	21.72922967210482	12.242507551543234
O	6.691488199838492	20.47960898657856	12.349562766146956
O	7.277218670756314	22.966945229707726	13.367564848201257
O	8.124729118343804	22.314320429677284	10.886813891968071
O	6.1823178135616335	21.065733521889868	11.10282706706311
O	6.624904059477357	23.385529671796117	12.173504188137347
O	7.09177377468519	21.680950435643016	10.108353552903875
O	7.699780212229177	23.696152351458625	11.143635930284884
O	5.7592595197811995	22.363307162519547	11.645807389043547
O	2.9714714812520664	27.698798419645172	17.256044101703942
O	3.9935991749736153	27.948215948227713	16.35048564275729
O	5.2246218853598245	27.64355275011873	16.847936441119202
O	5.37060786350102	28.205574033936163	18.114348167263017
O	4.274479970198529	28.26974661479242	18.98275632557355
O	5.306349043956645	19.94260045018729	16.10801045829845
O	4.7494578369260125	19.98145690972406	17.507630936502796
O	6.62000060618931	21.526881558965194	14.348243139268313
O	5.26581724051024	21.54878311037716	14.301055507923447
O	4.588603439836763	21.278465714178573	18.104502322102956
O	5.06532785871148	19.175107867989453	18.381992035368885
