27

O	10.634458392461713	37.134772782510154	25.559748845189834
O	11.60194795773531	37.546615405042644	24.742057536840935
O	12.182376752059286	38.74415637089085	25.280314733272835
O	11.887188657384062	38.40690233343913	26.54851639090505
O	10.717436052651218	37.77466041135982	26.72256970324667
O	12.408953389804067	38.39438609985717	28.92397726964286
O	11.198560119780668	37.87293327457542	29.19030062236888
O	10.513700183476967	37.44671344746247	28.00770117146558
O	12.537128913742995	38.7593163312443	27.633571287518038
O	12.906383684654635	39.3524239572518	29.83559845005133
O	12.13505112440792	39.869849092634254	30.88755243921848
O	12.02628708012251	39.23772360176221	23.952375081801836
O	12.021457586931565	39.352251615218435	22.70071321129091
O	11.515443204582844	39.489853339990425	21.439787094980247
O	9.43216748644977	37.1309259780569	24.266708969865437
O	9.307727647054746	38.77078514458627	23.42218976753978
O	9.197536807324937	40.147631421055735	23.234092821606378
O	9.878629566205523	41.120481756373856	24.106106348117123
O	9.930398259189639	40.96985348675978	25.55448507496166
O	8.962709835429692	40.23036095988516	25.028161511925283
O	9.279485254704495	38.99451632008278	24.66793272356265
O	8.255236483386069	36.47019401626125	24.752069928679752
O	9.788699340977438	36.239349952413214	23.136321802287725
O	10.944482193951544	38.585811368384284	20.810627699995113
O	11.181882901663162	40.747644727027144	20.912769999505578
O	10.413320860562498	41.033534778099295	26.851731301371665
O	10.26758571907816	40.75897491065339	28.20223855920085
