25

O	-1.3133136655832904	30.754594160018094	12.663552177223988
O	-4.087225658371071	29.523677816783287	14.59138004556311
O	-0.5564838829586135	31.044777634067533	13.750424439514989
O	-1.912018906761234	29.56656013517803	12.463721602351896
O	-3.452959937716347	30.508689217137878	15.201225536953329
O	-3.851305889971983	28.290296931663033	15.11296377379332
O	0.06451946968716582	30.058100140662038	14.426316667968635
O	-1.3669105623524755	28.613808505913187	13.317292116259242
O	-2.717140155828454	30.240494116230433	16.3132067324879
O	-3.3486168926609308	28.16300521299093	16.38779843841404
O	0.574864439774313	29.685220669713548	16.678933249118153
O	1.1534691397966161	27.558626330159072	17.243408952513956
O	0.3290328712289883	29.947481227348604	17.99740198322515
O	0.5996257416777351	27.716364208362698	18.48417886351534
O	-0.4105309291699989	27.879597923701517	15.41423429843757
O	-1.7847139793771452	29.318019616972474	18.160852059854136
O	-1.5697246325731053	27.44870939788929	19.371686051860333
O	-0.6677187126779864	28.907998752255388	14.45103745734125
O	0.6826306845776	28.389006679289853	16.3048456354652
O	-2.74005301277867	29.114196275925558	17.130794293349645
O	0.61864206713409	29.022403260874952	18.96901245195857
O	-1.6318273856339658	28.891230605295803	19.412627085979913
O	-2.2229067958606876	27.002436034195973	18.43388808412734
O	-2.2971428443537434	27.38200790153859	20.568922016997284
O	-0.3719120120053584	28.986746595856808	19.96425125965503
