86

O	-0.5673621260666671	4.995326853208333	-1.7373870717200004
O	-1.462056359066667	4.159144353208333	-1.1713055277100004
O	0.6703254249333328	4.595040073208334	-2.0274563167200004
O	-2.840198145066667	0.7209484072083332	0.7485276332799995
O	-1.8580761620666673	1.3207659652083332	1.4732805832799998
O	-0.9106409760666672	2.9682682832083334	-0.9096734557200004
O	1.1481645049333327	3.4003434232083336	-1.6251770077200005
O	-2.833985615066667	-0.7273207167916669	0.9424979032799996
O	0.7801551249333329	0.9370047602083332	-3.9336422267200004
O	0.34452377493333297	2.1185141752083334	-4.23320093672
O	-0.6496313330666671	0.6341061082083332	1.2681414332799994
O	-1.527133203066667	1.5545164662083333	-3.2399402567200006
O	0.897408594933333	1.1816811807083332	-0.8659705717200004
O	-1.4820415730666672	-0.8829475967916667	-2.0770234877200004
O	0.31738565493333293	2.4666341032083334	-1.0103827527200004
O	-0.12044921506666717	-0.14738115679166675	-3.5477525267200005
O	-0.931159578066667	2.5052334632083335	-4.009961086720001
O	-1.6889939970666672	-1.213051176791667	0.26687711327999963
O	-0.5602304950666671	-0.47165363679166683	0.3741348932799995
O	-1.3237534661366672	0.2613925072083332	-2.9024387767200004
O	-2.1626493820666672	-1.5065225367916668	-1.0539737357200005
O	-0.8445999690666671	-2.0027532167916666	-2.1507612627200006
O	-1.9370335100666671	4.818233003208333	-4.385660466720001
O	-0.13293553506666722	4.489797793208333	-5.00706385672
O	0.3288875849333328	-0.06887559679166677	-0.6678057847200004
O	-1.0919350450666672	3.774326213208333	-4.5493381067200005
O	6.971551474933333	-4.756476586791667	-11.64112234672
O	-0.20471758506666715	13.659267173208335	-9.886679066720001
O	-5.975243715066667	7.692795233208333	-1.1859207935200005
O	-7.653144175066667	4.833516073208333	0.6877899532799996
O	-10.057337985066667	4.170011223208333	-2.2062283467200006
O	-7.182987325066668	4.318765613208333	-4.64432492672
O	-5.314583445066667	1.8034354882083332	-2.6789049267200005
O	-8.087640625066667	-0.7056755067916669	-3.0993842067200004
O	-8.076538155066666	-0.8255367967916667	-6.861022276720001
O	-4.4051863050666675	-1.728266546791667	-6.96755899672
O	-4.929254615066667	-4.145970776791667	-3.9477157967200003
O	-7.406043795066667	-6.069287126791667	-5.9492466867200005
O	-5.109336615066667	-6.021830236791667	-9.03515663672
O	-2.307202111066667	-7.406148696791667	-6.82366291672
O	-4.691819115066667	-10.090203726791666	-5.445547606720001
O	-5.217424325066667	-11.194832226791666	-9.09258799672
O	-1.438471114066667	-11.319910926791666	-9.69226696672
O	-2.7918644750666672	-12.701127026791665	0.04651342327999952
O	-2.209673456066667	-9.503088926791666	2.0907728532799994
O	0.899718904933333	-11.029961026791666	3.6929433432799996
O	1.0322527549333327	-7.854675606791667	-0.8638011157200004
O	2.9899212949333327	-6.303887536791667	2.0552839732799995
O	6.182317064933333	-7.260401486791667	-2.2768543267200005
O	5.390321604933333	-3.777707936791667	-1.3167211637200005
O	8.586054864933333	-3.5724139467916673	0.6572855832799995
O	10.265260884933333	-4.005358076791667	-2.7848479867200004
O	8.730446384933332	-0.6043274167916668	-3.7921985467200003
O	9.575937884933333	1.1437865046083333	-0.4869745347200004
O	6.709924854933332	4.164385083208333	-1.7531190327200004
O	6.484644684933333	3.8036212232083333	-5.524174496720001
O	2.9491862049333326	4.050295913208333	-6.910556676720001
O	1.2078893949333327	3.534500563208333	-10.40115952672
O	3.6126036249333326	0.9972999862083332	-11.72513964672
O	6.576621384933333	3.0339226032083335	-10.47854003672
O	5.576969434933333	6.339963613208333	-12.08664644672
O	4.865958394933332	8.112419373208333	-8.80395832672
O	4.599277674933333	9.016548833208333	-2.3136498767200004
O	2.656234954933333	12.525742573208333	3.251271193279999
O	1.0267882549333327	9.259693013208334	4.29994465328
O	1.8790284049333328	9.983775553208334	7.969826663279999
O	0.2135437349333329	13.413667773208333	7.49470384328
O	-3.199752525066667	11.880322773208334	6.749791323279999
O	-5.855188035066667	6.882788563208333	7.847378923279999
O	-2.393241675066667	8.186286113208334	8.704122333279999
O	-2.159540045066667	2.5935753132083335	7.81762221328
O	1.2977384049333327	2.716281643208333	6.201831193279999
O	3.754621604933333	3.3709355632083335	8.99538805328
O	3.9424392049333328	-0.3241634067916668	10.260192653279999
O	4.626896394933333	-1.410399516791667	6.63146190328
O	7.4889703749333325	1.1020270413083333	6.23005888328
O	8.859392684933333	-0.11583631679166673	9.59298025328
O	8.707872084933333	-3.732102446791667	8.312839543279999
O	10.043932084933333	-2.817238536791667	4.83454204328
O	1.1044811849333327	-6.277781776791667	9.93168985328
O	-2.096382185066667	-7.760197486791667	8.47421268328
O	-4.355708615066667	-3.3366992667916673	9.059177653279999
O	-7.524602515066667	-5.407104886791667	9.76458415328
O	-10.371609685066668	-1.4388884667916668	8.78993950328
O	-13.274811815066668	2.5249664332083332	9.597332953279999
O	-14.519492115066667	-1.617096606791667	0.6341906332799996
