41

O	2.8160993341420557	25.67458137724085	19.84053714966457
O	3.6466287515523725	25.842175145803807	20.861674054606183
O	4.997405616328682	26.064787989039093	20.483898008132435
O	5.324904134093802	25.843389047480326	19.096294559885415
O	4.4115542235613665	26.57908218814073	18.5244271083981
O	3.089491422899672	26.578547913429166	18.969213641106077
O	6.287910337317317	25.72182824864751	18.21650390365941
O	6.091426788265241	26.783041936324917	17.532405937364423
O	4.895318413454745	27.4277370642526	17.585880333127147
O	4.282401444152178	28.782255433876408	17.803355074416093
O	7.159382459683051	27.356675133925968	16.854002196007247
O	7.5332040776804075	25.11333584368528	18.527436146399953
O	7.005074302434947	24.201526806201056	19.55576794941954
O	2.117989700343487	24.449975449604384	19.75464387757015
O	1.1397959199073222	24.76290251252583	19.134577337751654
O	2.929775028632762	23.598617821748814	19.044787417940782
O	3.1822819450173547	22.318690359458387	18.71867833151252
O	4.1868758933322985	21.956813038587008	17.726960966020187
O	3.7847163920868683	21.926037173047	20.094954341737946
O	5.685042763862396	24.035558528993473	19.958620864216044
O	5.093561233955537	23.810912075077642	18.68057347012359
O	5.982445374416317	23.279327677490247	17.811064893144305
O	6.587038393512286	22.3868152296528	18.584519781400218
O	6.638264681628531	22.940308262714	19.786683285939997
O	6.091384373554652	23.770459883875244	16.517260781581978
O	7.2980508427948685	23.269765468449812	16.035101903947034
O	7.3857300930975915	23.301868993104325	14.691051990110648
O	6.716242643720537	24.393408087397038	14.219506234394942
O	6.227853569479479	24.710974431373653	15.42437166538
O	4.918989081172742	24.453812458962	16.054611659132938
O	4.1238279851998705	21.813204585038747	16.409016755713505
O	4.881028628601948	21.1605099501407	15.402608028535903
O	6.015814693833941	20.57190867563842	15.804277770483324
O	5.840918054204786	20.205378707245103	17.0820435068364
O	4.970198019531255	20.92020883056239	17.985836677151028
O	6.790296547438385	19.95865056151171	14.811934997174179
O	6.073451217065063	19.059247353393175	14.012789771777499
O	7.8104573122622565	20.309787049603827	14.226292378752486
O	3.611248476370008	24.755680428767626	16.556875885642437
O	2.4440697307090025	24.423848489745133	16.709508119639786
O	2.538598699422927	25.68468395148818	16.752658075783277
