93

O	4.366013372436924	-1.1201562442923072	-0.45028873404923125
O	5.341136112436923	-1.9024294242923072	0.23974603395076877
O	5.187791322436923	-3.216405904292307	0.6269953609507687
O	4.477649582436923	-3.9021571742923076	-0.2722058040492312
O	4.967463352436924	-5.206529944292307	-0.055387448049231236
O	4.111241952436924	-6.021001244292307	-0.9745192280492312
O	6.292906852436923	-3.891131654292307	1.2580047609507687
O	6.552550572436924	-4.017621644292307	2.458287700950769
O	7.069569442436923	-4.681260264292307	0.46697751095076867
O	3.6468527424369235	-1.5364791042923072	-1.4586643540492312
O	2.768200752436923	-0.6711752352923072	-2.0283303290492314
O	2.1586627124369233	0.23118489040769286	-1.2111883970492312
O	3.144889652436923	0.8741901817076928	-0.5736173950492313
O	4.063431712436923	0.10696812200769287	0.027016074950768743
O	0.8851086704369234	0.6351951937076928	-1.4698455480492312
O	0.30905126743692346	1.5762941957076928	-0.5244971130492313
O	-0.38961559056307654	0.5679214537076929	0.41633735095076874
O	0.7494957884369234	-0.3881850072923072	0.5858348909507688
O	1.6101373624369233	-0.3652897802923072	1.611315970950769
O	2.592579822436923	-1.401255954292307	1.774646710950769
O	2.2633832124369233	-2.617997974292307	1.3544763009507688
O	1.6373235724369233	-2.668386314292307	0.16280974095076872
O	0.7423042594369235	-1.5769502742923072	-0.09297084404923128
O	1.2121382724369234	-2.7874883542923072	2.326353580950769
O	3.389818292436923	-3.562675864292307	3.424128660950769
O	2.3810068824369233	-3.871445934292307	3.918289050950769
O	2.5076300024369234	-5.214279154292307	1.6898971009507688
O	3.6985425824369234	-4.505082514292307	2.7467233509507687
O	6.374243472436923	8.959324635707693	-10.637498479049231
O	-0.12167596856307657	8.496336795707693	-12.57351929904923
O	-7.658844447563077	9.857273965707694	6.6863442809507685
O	-5.018118097563077	13.814085305707694	4.858923340950769
O	-2.5429990575630765	12.589780705707694	7.504033570950769
O	-4.967504527563077	-0.23159537629230711	10.331607100950768
O	-1.5282788375630767	-0.07675808229230713	12.003929200950768
O	-0.8382269925630765	3.543903405707693	10.940125300950768
O	-1.6157201175630767	2.6659748957076927	7.321978040950768
O	0.5921349564369235	-0.3655215362923071	7.494476830950768
O	3.4877715924369235	1.6452567457076928	9.099152130950769
O	3.0226698224369235	4.1456602757076935	6.308001960950769
O	3.3285132024369233	1.6882661257076927	3.493196270950769
O	6.749969352436923	0.7374162647076928	4.858392080950768
O	8.337712802436924	3.967192145707693	4.408933400950769
O	7.199294282436924	4.106000715707693	0.7580931809507688
O	8.352419472436923	0.5369104017076929	0.3112189309507688
O	11.871674672436923	1.098240108707693	1.413301200950769
O	11.964172072436924	4.164154815707693	-0.8325215080492312
O	10.738039072436923	2.021708845707693	-3.784740959049231
O	13.307964772436923	-0.7140720672923072	-2.9529637890492313
O	16.022164172436923	2.012110005707693	-3.3339714190492313
O	14.539849472436924	3.126513525707693	-6.693327049049231
O	8.423700262436924	-6.9383256142923075	-4.589582799049231
O	6.841015352436924	-2.9824815942923073	-6.486064969049232
O	3.406856702436923	-4.632167804292307	-7.353496559049232
O	1.8252986024369233	-0.05234987229230714	-7.986198939049231
O	-0.7431783765630766	-1.1970086742923072	-10.557886449049231
O	0.2895386084369234	1.9721744257076927	-12.502310199049232
O	-1.0703092075630767	3.981951955707693	-9.508773689049232
O	-4.314979117563077	1.9371835357076927	-9.20774033904923
O	-4.554135037563077	3.735784575707693	-5.1694430590492315
O	-2.4993855275630765	6.901491565707693	-5.414414459049231
O	-0.3041165995630766	7.641026235707693	-2.399821119049231
O	2.3032124624369232	10.406546605707694	-1.4447384200492313
O	3.6673703924369234	10.995588605707693	-4.901349229049232
O	0.14310895843692342	11.035442605707694	-6.270036949049231
O	-1.2377495075630767	13.685410205707694	-3.8972137490492313
O	-3.602123687563077	11.294477305707694	-2.1178842190492313
O	-6.714618957563077	5.6889948357076925	-0.8037579670492312
O	-11.474762527563076	1.9829261257076929	2.777988240950769
O	-8.603991467563077	-0.5090892402923072	2.664780120950769
O	-11.029482427563076	-3.377860524292307	2.4716191609507687
O	-12.769262527563077	-1.9199232342923072	5.589817870950768
O	-9.681172217563077	-2.434833524292307	7.778888370950769
O	-9.912454607563078	-5.057023844292307	10.511755700950768
O	-5.097500497563077	-5.8178658342923075	7.663195290950769
O	-8.099173317563077	-5.528622654292307	5.3428034009507686
O	-3.4844652075630766	-6.886053314292307	2.184242440950769
O	-4.575641327563076	-4.754156624292307	-0.8521477628492312
O	-7.427127827563076	-6.504221164292307	-2.4309430590492314
O	-5.332748497563077	-9.158423044292306	-4.379489319049231
O	-3.1758184275630765	-6.295953734292307	-5.784010869049232
O	-6.221183327563077	-4.373056824292307	-6.951354129049232
O	-7.5110609575630765	-7.625156334292307	-8.528887869049232
O	-4.166475037563076	-8.056458384292306	-10.343250159049232
O	-3.8873073775630766	-4.339101194292307	-11.226862799049231
O	0.6083908884369235	-12.075592594292306	-5.077118639049232
O	3.9759180424369234	-12.009531994292306	-3.211481769049231
O	1.5696706024369234	-10.912474094292307	1.1118737609507687
O	4.275946152436923	-12.957781394292306	2.892118180950769
O	3.0258806024369234	-10.941639994292306	7.3746349209507684
O	1.0575825324369232	-10.372378994292307	12.014923900950768
O	-0.02261844096307658	-8.607327484292306	16.13860390095077
O	4.502126732436923	-2.730301624292307	15.895849900950768
