100

O	1.8501358566666664	-0.4339910267469276	-0.47350942686086944
O	0.7845238966666666	4.037545563253072	-0.7288934652608694
O	-0.4808306033333335	3.5635856232530725	3.4689753767391305
O	-2.533713743333333	4.3996563332530725	-1.4874678732608695
O	-2.9853555233333333	-1.7009879267469277	-0.43883349166086943
O	-2.2058949533333334	-2.4173922467469278	-1.4120633452608695
O	-1.8763139133333335	-3.618216546746927	-0.7861516122608694
O	-0.8045228583333335	-3.1162260467469274	0.024645131739130577
O	-1.3049527633333335	-2.2004088267469277	0.8487855067391306
O	-2.1761720133333338	-1.2180071567469275	0.5398032567391304
O	-1.6924202733333336	0.014182993253072373	0.7708948167391305
O	-0.7403265093333334	0.5648572732530724	1.5564758367391307
O	0.04831086666666651	-0.4477491367469275	1.5538009467391305
O	-0.20952467333333347	-1.7279900567469277	1.5696334367391307
O	0.2981568366666665	1.5805247442530723	1.2823406967391304
O	-0.8552130513333335	2.0681967922530724	-2.0006156332608693
O	-1.2947694533333334	0.7445170032530724	-1.9693329332608696
O	-0.29497694033333344	-0.05429395674692761	-1.7525122132608695
O	0.32819455666666664	0.3802377532530723	-0.5693343059608694
O	0.14162654666666663	1.6838156222530725	-0.0489743732608694
O	0.0627649366666665	2.5256218932530725	-1.0275271192608695
O	-3.4910221533333337	1.3530358452530724	-1.7570407632608696
O	-4.638579713333334	0.5352377002530724	-1.9923473132608696
O	-3.3158342833333334	2.4491755182530723	-2.8093313032608696
O	-2.4648610933333335	0.27196760325307245	-2.6050176932608693
O	-2.9885184133333333	2.0521363352530724	-0.2785608072608694
O	-3.3785889133333336	1.9093441852530724	1.0711522067391306
O	-2.7557084833333336	2.5006019832530724	2.2522225067391304
O	-1.5541606223333333	3.2881782832530724	2.1560264467391304
O	-2.0134125143333335	3.9886349232530725	1.0757511667391306
O	-2.5243734333333334	3.3329689332530723	-0.11194883226086944
O	-0.24853656233333343	13.154719463253073	-8.88011867326087
O	6.357658156666666	11.156593403253073	-8.278471003260869
O	7.276806616666666	5.192074053253073	7.62040538673913
O	8.385951746666667	1.1391621982530724	11.70655800673913
O	4.057459326666667	5.341209073253072	11.58468640673913
O	3.341761356666667	10.205878353253073	10.37571490673913
O	-0.22790677233333345	9.275191243253072	11.35142660673913
O	-1.7670072653333335	-4.007345526746928	10.22970370673913
O	-5.526500573333333	-3.216232496746928	10.35063590673913
O	-5.009642753333333	0.5965482562530724	10.54870860673913
O	-2.7944100133333336	0.46413164625307235	7.502303126739131
O	-5.311774753333333	-1.7917018367469275	5.603630496739131
O	-8.223931303333334	0.5059813062530724	6.553616776739131
O	-6.101912613333333	3.456856953253072	5.371284456739131
O	-5.745425213333333	1.6042372212530724	2.0764854067391307
O	-9.235924863333334	1.6211352912530723	1.3490580467391304
O	-9.860488163333333	5.319943443253072	1.5863626067391303
O	-7.230993473333333	6.038528503253072	-1.0476705522608694
O	-8.434145423333334	3.0679849132530723	-3.1166450732608695
O	-11.932355943333334	4.466584913253072	-3.3033406132608696
O	-10.555654733333334	7.944256923253072	-4.1216980932608696
O	-8.525088443333335	6.380945773253073	-6.956235443260869
O	-11.607325543333335	4.459202453253072	-8.156607073260869
O	-13.336855943333333	7.892888433253073	-8.50806615326087
O	-7.841343843333333	-2.3572057967469275	-9.750071883260869
O	-4.815721333333333	1.3475168562530724	-9.68766888326087
O	-1.8113691633333335	-1.0810635567469276	-9.64516925326087
O	0.8415663266666666	2.7882069932530724	-8.09372788326087
O	4.032639116666666	1.4581562557910723	-9.70929501326087
O	4.928969836666667	5.906012193253073	-6.9019030432608695
O	7.128593546666667	2.8465934532530723	-6.081771673260869
O	8.911896726666665	1.5510322552530724	-0.8005198412608694
O	5.859188536666666	3.5264515132530723	-1.8975552632608694
O	4.829155376666667	7.189168473253073	-1.8294194032608695
O	1.6344131066666665	7.819051673253073	0.18321216573913063
O	-0.7121461143333334	10.765708523253071	1.0030131267391305
O	-0.1984691333333335	12.66614766325307	-2.2158158732608695
O	3.561543676666666	12.042213363253072	-2.0526199232608695
O	4.837652366666666	9.928098803253071	3.0065008867391305
O	6.9837700966666665	7.001009973253073	1.9657549667391305
O	6.1651215766666665	3.5825775632530723	3.3677407067391307
O	9.112611756666666	1.1875987412530724	3.1315606667391305
O	8.728847086666665	-2.1719937367469275	1.4706789267391305
O	10.413870956666667	-3.7183683067469273	4.506793686739131
O	7.873312386666666	-2.2391118867469277	6.976352686739131
O	5.030572236666667	-3.627239396746927	4.9596361867391305
O	6.659912856666667	-7.006225776746928	4.681650406739131
O	6.985448186666667	-6.941657626746928	8.54683476673913
O	3.1739532366666667	-6.9324960567469285	9.05089263673913
O	1.5544176366666664	-10.038050536746926	10.49687410673913
O	-1.4878703783333336	-8.49950487674693	5.968218606739131
O	2.2945130266666665	-8.675084536746926	5.260757316739131
O	-0.5454999903333335	-7.815096686746927	0.38404119673913056
O	2.0807525666666664	-5.321283126746928	-1.1406090802608695
O	4.8867906366666665	-7.381685316746927	-2.0102022932608694
O	3.4749077466666662	-8.740518336746927	-5.385807803260869
O	2.7260119966666667	-5.029368386746928	-6.293449503260869
O	6.394680716666667	-4.103686446746927	-5.608822593260869
O	7.544463826666667	-7.147343206746927	-7.594198703260869
O	5.373665206666667	-6.021651316746928	-10.52656319326087
O	6.348179946666667	-2.3451539567469277	-10.12743483326087
O	10.132830256666665	-2.906963126746928	-10.29932371326087
O	-1.9449353703333334	-9.257408336746927	-9.10822800326087
O	-5.668267253333333	-8.578774136746926	-8.69872914326087
O	-5.211324403333333	-9.440790636746929	-3.7661771832608695
O	-8.774054263333333	-10.893777636746929	-4.025362433260869
O	-9.347896473333332	-10.424419536746928	0.9144296567391306
O	-9.630325233333334	-11.725745336746929	5.715449936739131
O	-10.258786453333332	-11.452650636746927	10.21832600673913
