10

O	1.6536911566808317	27.95267546745898	20.34065507346537
O	0.3251288474306011	27.88042955486268	20.698463646835584
O	-0.5858911094823598	28.270549554622562	19.571982839817473
O	-1.935846738055992	28.43141793359443	20.0882566048829
O	1.115093598242027	29.315834425400446	18.859309728614967
O	0.9758556683535571	28.38843884415573	17.70360088579762
O	-0.3538915384143566	27.902232827028275	17.297667537344058
O	2.6946436702958207	28.020861647932996	19.778536691119996
O	2.9851769087716358	27.420858324007888	18.341455770544908
O	2.0891762003812397	26.23578476378971	18.76217470470337
