19

O	-3.7322916094008596	30.61830583146152	19.113825922250147
O	-3.3896624508826796	29.96549619252562	17.983390730093905
O	-3.0960067529480537	30.269467717719237	20.267922705399492
O	-2.3188163911560853	29.096630883561083	18.008577649326625
O	-1.87602485110291	29.669262766771766	20.156731271456735
O	1.0845516208000183	30.854592206261046	19.361973428504204
O	0.547251450081444	30.305980980040893	17.149949316612325
O	1.6159214280225276	29.620240690943586	19.495206483094545
O	1.1198449156015393	29.10024788314976	17.36205275219884
O	-0.4480827110363398	28.154898318847344	18.773035757399146
O	0.8280994188069785	27.778890986823537	20.624208830864593
O	0.5755144569166073	31.22578363608112	18.138639815453033
O	-1.6446849969076451	28.77171610313358	19.185349889923188
O	1.8847755818734742	28.716784285414686	18.46336575907267
O	0.4499610932202337	27.22331189924223	19.326466227098223
O	1.8183445971308787	27.25538322467432	21.106541020374518
O	-0.08979738893443232	28.31654033489987	21.418808997370135
O	1.7144285989366486	27.322419757116172	18.61338133137361
O	-0.870434428877918	32.24435595266619	18.08203736876208
