37

O	17.820810457924857	39.558117169213844	34.43776339751744
O	8.599993295900296	38.54192641018121	24.96426707787502
O	8.932775076186136	38.060781995593295	26.33351274599189
O	9.460648215018214	36.866946736778225	26.944615124074335
O	10.91757225957907	36.89870508759948	26.51678489754273
O	11.362907129204336	37.812839293908944	27.343684770670258
O	10.240879029834524	37.29078181857	28.00997902535107
O	8.846783729323054	37.65229847499978	27.732807892221608
O	12.282629615578474	38.899557318334836	27.47469272190897
O	11.736208550984406	39.478028105299224	26.12023119630932
O	11.974224154870404	38.54155886298053	25.35978517466269
O	11.384837156363124	40.21149810909314	24.839368314440282
O	10.185558732197677	41.09585233837257	24.904746183272355
O	10.228247697364164	41.09071506231616	26.33609214227047
O	11.396803837974577	41.775468440335715	26.78486962017993
O	11.756206418410754	41.824811805044526	28.131022686003384
O	11.209860029416182	41.1257201678146	29.143088112713322
O	10.409398029934186	40.134560407695616	28.563001719643946
O	9.947028890434092	40.37986351915331	27.374916526576044
O	10.085252288136946	39.345035778484025	29.62000274255096
O	10.701657689037923	38.69168137070613	30.474378683294436
O	12.089542302155635	38.64780777793062	30.38634812582111
O	12.559863846198684	37.39273798114089	30.302538091968877
O	13.807197931193834	37.631399336405956	30.210409955615567
O	14.193212590016822	38.88325499793448	30.295723342768937
O	13.066444391770391	39.48634949236793	30.389210436938466
O	15.31061205584625	39.577545783330166	30.977323892795418
O	16.441785563571628	38.86691586546811	31.045881175957575
O	17.22606893556644	39.044698368149234	32.135347772910315
O	16.609494655696594	38.89230794966103	33.38015432082989
O	15.45359822756442	39.667726860481345	33.387855757241695
O	15.253192153928364	40.26901688570415	32.13929855755576
O	11.588712863033397	36.286639886360575	30.10685497845818
O	11.855141471193408	40.669314543479096	23.596072101496336
O	11.086102753318091	41.43726039051514	22.584783338665375
O	11.729363182513584	41.569256112487835	21.47831637849337
O	11.165213593326268	42.88892759396477	22.59235952656836
