95

O	-5.0565243567765625	7.70992474890625	-2.329399016281249
O	-2.338630226776563	1.7434987669062498	1.576583663718751
O	-2.244996406776563	2.38148115390625	0.24891536371875111
O	-1.0481792127765628	2.72432396890625	-0.32052096928124896
O	-1.4213705397765628	3.63583325890625	-1.2798031532812488
O	-2.605849196776563	3.1655707589062496	-1.7674699622812489
O	-3.131795796776563	2.7118133889062497	-0.6358145802812489
O	-3.3182390567765627	3.87687179890625	-2.845433856281249
O	-2.781107436776563	4.97333489890625	-3.514806246281249
O	-3.6407858067765626	5.95198539890625	-3.948911706281249
O	-4.729117396776562	6.1938946989062496	-3.113423706281249
O	-5.474871946776563	5.03438295890625	-2.902778726281249
O	-4.698589226776563	3.8835616689062498	-3.053604856281249
O	0.25205410322343713	2.82210561890625	0.35285110371875117
O	0.3446135632234373	1.73272905690625	1.252187423718751
O	0.8246614732234372	0.58123114890625	0.609484553718751
O	-0.12168706077656277	0.17489909890625	-0.3596124012812489
O	0.20138098322343723	-1.1073896510937502	-0.7556336049812489
O	1.520189483223437	-1.15869514109375	-1.229091097281249
O	2.531112483223437	-0.8885512310937502	-0.27424661128124894
O	2.1534465932234372	0.3084381289062499	0.37308294371875106
O	3.9990939532234373	-0.89804719109375	-0.7041494422812489
O	4.417295123223437	-2.12443177109375	-1.2881943782812488
O	5.434478713223437	-2.1560521810937496	-2.266367266281249
O	5.8223057432234375	-3.37623710109375	-2.952531676281249
O	7.010948823223437	-3.35109237109375	-3.442859426281249
O	4.947047273223437	-3.86068109109375	-3.941704246281249
O	3.623289213223437	-3.2596975510937503	-1.0924946332812489
O	2.767595233223437	-3.1855604510937505	-0.15480095428124896
O	3.2636149932234373	-4.190663581093751	-2.047689766281249
O	1.9261306632234372	-4.24450006109375	-2.701375236281249
O	-9.399910656776562	7.14630704890625	-8.829848336281248
O	-7.604818676776563	3.57322022890625	-13.558585776281248
O	-10.297445186776562	-3.1838527810937505	-6.594819436281249
O	-7.485535546776563	-5.04930185109375	-4.785891156281249
O	-5.364103416776563	-5.13958617109375	-7.94273184628125
O	-5.901245836776563	-1.41252681109375	-8.587992316281248
O	-4.966357646776562	-0.5600528910937499	-4.982966376281249
O	-1.9654558467765628	-2.83628003109375	-5.242528756281249
O	-0.8379444602765628	-1.0817499310937502	-8.39162187628125
O	-1.1127460507765627	2.32751631390625	-6.678613496281249
O	0.8942002232234372	1.04570633890625	-4.057682506281249
O	3.7009754032234374	-0.07355500109375002	-6.286545426281249
O	3.7816028332234373	3.36044032890625	-7.7819811162812496
O	4.013571373223437	4.83519346890625	-4.2591378662812485
O	6.861362953223437	2.52198547790625	-3.239893586281249
O	8.804108823223437	3.2243834289062496	-6.4772438162812485
O	8.628141373223437	6.95939033890625	-5.7709407662812495
O	9.662319803223436	6.50828531890625	-2.1371286962812492
O	12.549216003223437	4.20063934890625	-3.062942896281249
O	13.556772103223437	9.57295324890625	-2.916377046281249
O	11.596197403223437	-0.9956894510937502	3.194616723718751
O	12.679051403223438	-0.5158142410937498	6.832020673718752
O	12.807684003223438	3.1742910889062497	6.002418053718751
O	9.534585503223438	3.04277964890625	4.077900033718752
O	7.619291343223438	1.51156451290625	6.958566713718751
O	4.720077333223437	5.52998432890625	6.811476783718751
O	-0.7709820385765628	7.54786284890625	9.393774423718751
O	-5.173770236776563	5.10076382890625	13.995584223718751
O	-5.926585556776563	5.33714931890625	7.987361493718751
O	-3.181791816776563	6.95759496890625	5.932260023718751
O	-2.618626926776563	9.815763708906251	3.502163983718751
O	-2.002048966776563	8.83653401890625	-0.10833844528124892
O	-1.5029202897765628	10.47559169890625	-3.5256923562812488
O	0.7824609832234373	13.145358778906251	-2.3175446562812487
O	-1.515506508776563	14.16769737890625	0.5214351237187511
O	-4.636498726776563	14.41505197890625	-1.627464612281249
O	-6.302136756776563	11.20835083890625	-0.4772420282812489
O	-6.8494318867765625	9.344160808906251	2.775492083718751
O	-7.603637946776563	5.64763960890625	2.6816522837187513
O	-9.139528216776563	4.11871284890625	5.765761623718751
O	-7.706146896776563	1.28610321090625	7.840053283718751
O	-8.064347286776563	-1.97521896109375	3.6941070937187512
O	-9.109268176776563	-4.67046587109375	6.19114850371875
O	-12.280876196776562	-5.3509180710937505	4.159652643718751
O	-10.317054096776562	-6.31115812109375	1.034382173718751
O	-9.945718896776564	-9.98465602109375	0.17420425371875115
O	-6.866662096776563	-11.906242721093749	1.2473710337187511
O	-3.9975967267765626	-11.61665832109375	0.7161752637187511
O	-4.352242966776563	-7.9065443910937505	0.04655689871875113
O	-6.156893646776563	-7.262148121093751	3.402038323718751
O	-0.6218771247765629	-6.152710461093751	3.9931572537187514
O	-1.367173295776563	-3.0476877410937506	6.049973493718751
O	2.302947143223437	-1.4417822710937502	9.405284323718751
O	-0.5371430917765628	0.4720727189062499	11.068936323718752
O	10.235348803223436	-6.2643490910937505	6.5127308137187505
O	6.384131103223437	-8.35540701109375	4.435726823718751
O	8.848940323223438	-9.98626542109375	1.946619103718751
O	3.845322013223437	-12.07296522109375	1.8553569437187512
O	5.174065603223437	-10.39610702109375	-1.306134742281249
O	6.538431563223437	-13.708726121093749	-2.564808476281249
O	3.109792803223437	-15.23936592109375	-2.0005215562812486
O	1.3412338332234373	-12.46841812109375	-3.8958960262812488
O	6.028250913223437	-6.33286274109375	-9.678769826281249
O	7.481946733223436	-3.1119821310937503	-11.118072976281248
