31

O	18.096352066089167	37.3746630747137	34.417736923027626
O	11.386482815327287	38.13569324108798	30.862406288532203
O	12.811300428874631	38.48792496821096	30.706459144511804
O	13.525808726247217	38.18397190523203	29.57895714562972
O	14.827113619911765	38.27951862934236	30.012338799695296
O	14.829275286603329	39.32861563942096	30.88489035406689
O	13.651107485155165	39.12254275983699	31.461617395587584
O	16.072573543478008	39.75716048971162	31.552732696723655
O	17.321232073276143	39.22246271347042	31.24654440921935
O	18.244809135475933	39.11408026319537	32.256747312624746
O	17.716227135971796	38.806074791074	33.50845001546833
O	16.76273125429102	39.74478526000504	33.90171441861182
O	16.164823406255525	40.36806465759182	32.804544412559856
O	13.145996536191412	37.23768877306111	28.52354783646895
O	11.759807342083338	37.402263290113666	28.287944121692423
O	11.518416641909283	38.43761787780149	27.371848157967417
O	11.9382647462314	39.65930220408935	27.94721340461613
O	11.417117637717874	40.68684182381388	27.186925160333143
O	11.807985239297203	40.55468809048876	25.846847543627582
O	11.31328777159703	39.4141129763755	25.167852800643338
O	11.586022988704581	38.30815577573201	26.002673006971214
O	11.706022224269866	39.173136807418906	23.70923484199197
O	11.368299588293466	40.245771593728556	22.840087052334777
O	12.138407346559573	40.521422354035984	21.689680513796162
O	11.880406728975082	41.66424286611265	20.830914189207498
O	12.327366200465432	41.535131799237135	19.63196319156245
O	12.268036343940809	42.92790998105787	21.31269676070819
O	10.439496178891678	41.19389500357504	23.282758931870514
O	9.735869079513893	40.85711788161217	24.286984010119816
O	10.535998237189915	42.56618779067438	23.156422496616116
O	10.927729667831487	43.482641709109515	24.263547645321466
