27

O	4.8196429240863905	26.374929242845838	18.922834397526625
O	3.4486001039823595	26.257987771249574	18.825245684021326
O	2.9178849875270667	26.929266328062244	17.666232284038685
O	4.147981890341446	26.927649415276818	17.014757524503246
O	5.10744918344332	26.160075389656473	17.669405988564158
O	5.832763805514401	27.042367036686926	15.21329294107915
O	6.64472771025874	26.139180833592146	15.782218720604842
O	6.327647310556275	25.830881501267996	17.12488545417316
O	4.563888532058528	27.116163909596356	15.743169146699419
O	6.48885398353138	28.206217025014794	14.699989381139147
O	7.859571884297844	28.24193390106816	14.461323409237519
O	1.7618269469670027	27.513766566083646	18.295579716505905
O	0.6638547717176904	28.317550155311068	18.375946802661982
O	-0.15278976904238561	28.66625909688327	19.526464978542712
O	5.27743099262114	26.758251275907458	20.461331442696046
O	3.584682925727763	27.32594038667885	21.025409420845754
O	3.310951755688369	28.565807427031995	21.322775844351998
O	3.2253769182458214	29.498735122931436	20.241714074031286
O	3.8426297198260086	29.2960509625548	18.996976391504067
O	2.7878787501005853	28.931098243558196	19.76733509651215
O	2.5242675942447903	27.56643810238137	20.40577356038362
O	5.368242520743963	26.01331622123947	21.6122696831472
O	6.431515216510019	27.653015228599216	20.566375415905057
O	-0.5526765052343414	28.057913180684242	20.56578972922626
O	-0.44950629989976676	30.009494917904867	19.804061111744026
O	4.824730013901586	29.27301632324108	18.07170106176683
O	6.150783763132544	29.037639340098348	17.68694253614647
