66

O	-3.935667110181818	-2.937325537113636	3.9148282653749993
O	-3.062501116181818	-1.7992861071136361	2.9902447753749994
O	-2.383266192281818	-0.21773388711363606	1.3338408733749998
O	-2.514301929181818	-1.611435807113636	1.7707019793749996
O	-2.281108790381818	-1.060811957113636	3.8051289653749993
O	-2.076377808181818	0.27524669288636394	3.4132001953749995
O	-1.908825843181818	0.870966148886364	2.1373257253749998
O	-2.392740953381818	2.246740537886364	2.1106487753749996
O	-2.103063036181818	3.267501492886364	3.078136095375
O	-1.222611830181818	3.404951682886364	3.8979457753749998
O	-3.054034262181818	4.267140002886364	3.3141923153749993
O	-3.757151780181818	2.018737729886364	2.186552715375
O	-4.037419620181818	1.656579850196364	3.4977934353749998
O	-4.849020420181818	0.6105654628863639	3.872614105375
O	-4.971786230181818	0.09265686288636399	5.108125545375
O	-3.555409200181818	2.3026369648863643	4.631393165375
O	-3.6705962201818183	1.917253589886364	5.921471975375
O	-4.434938030181819	0.754131242886364	6.178473185375
O	-6.387602310181817	-0.28535304711363607	5.437361025375
O	-7.013246400181817	0.8497558118863641	5.853127365375
O	-6.209489390181818	-1.038697437113636	6.512720385375
O	-7.147980500181818	-0.5533762871136361	4.381246295375
O	0.4055239798181822	-9.164903547113637	-1.5284735746250002
O	-1.593060852181818	-10.913857447113637	-6.927221364625
O	-3.7620878801818183	-12.081330047113637	-2.5722106546250005
O	-4.576978990181818	-8.341119147113636	-2.4898800946250006
O	-7.160456480181818	-11.493295647113637	1.3782174783749996
O	-4.773378940181818	-8.681162247113637	2.595649295375
O	-7.424176770181818	-5.972481597113635	1.7869603803749996
O	-8.906144480181817	-7.726548077113636	4.993992945375
O	-5.702787920181818	-7.667939357113637	7.468151215375
O	-7.170909040181819	-2.8507633571136357	-8.877241854625
O	-4.608549280181818	-0.237952747113636	-10.023337994625
O	-6.702333000181818	2.764540802886364	-9.036607494625
O	-7.475673060181817	1.296571080886364	-5.640010104625
O	-3.7937878001818177	0.7815333478863641	-4.848212314625
O	-3.037687883181818	4.267804392886363	-6.012206254625
O	-5.743532820181818	5.873145752886364	-3.9733892146250005
O	-4.065768870181818	4.148065752886364	-1.3316693146250003
O	-0.738275900181818	5.068176322886364	-1.5340979846250005
O	-1.9178437381818179	8.722586712886365	-1.4972975746250003
O	-2.994255949181818	8.611906902886364	1.9310468143749997
O	0.4123682798181818	7.272346382886363	3.1184584653749994
O	1.9536833498181818	9.784398812886364	0.9948697038749997
O	0.138732429818182	12.706621652886364	2.6963415953749994
O	0.8553269498181821	11.272762792886363	6.146044185375
O	4.510097569818182	10.986665462886364	5.253795205375
O	4.411725069818182	14.609241152886364	3.9802300153749997
O	3.2654685798181817	15.634634752886363	7.495063775375
O	10.392589749818182	4.256455582886364	1.2014231843749996
O	10.972185749818182	-0.3729283971136361	3.4335626953749996
O	11.953120949818182	-2.016280007113636	0.12542780937499964
O	7.536806999818182	-2.8801212871136364	-0.15802421462500038
O	6.460991129818183	-2.994205187113636	3.380664215375
O	3.1878895798181817	-1.2668057271136361	3.7261098053749997
O	1.369759589818182	-0.16157218711363597	6.775763785375
O	3.9536123498181817	0.2861071228863641	9.340075475375
O	5.349891899818182	-3.0175581971136363	8.192411075375
O	2.3886298598181823	-5.364272197113635	8.582221475375
O	2.0008557598181818	-5.993241477113635	4.827665115375
O	4.479708029818182	-6.6552175471136366	2.033876080375
O	3.4758307298181816	-5.790704847113636	-1.5256928646250005
O	7.332046049818182	-5.471806067113636	-6.686471434625
O	2.4692494698181817	-7.216733417113636	-8.351872944625
O	2.948984089818182	-3.522161127113636	-8.679601944625
O	-10.077388540181818	9.511396102886364	-9.764502594625
