23

O	4.487460975724719	27.075700144368643	17.873058584223223
O	4.460447192806001	26.204220884211477	19.084466294610753
O	5.473163420682123	25.095849792442497	18.82010315895839
O	4.9213503517062955	24.647786178590696	17.550639480659868
O	5.193441312098679	23.214893597261927	17.380335531818545
O	6.623634045456715	23.069451076570097	17.522749523500664
O	7.008477605638973	22.04967632234888	17.970784215401103
O	7.511535320471911	24.129059702167368	17.127908468530862
O	6.821001233172738	25.190718623810977	16.380846881802704
O	6.297176591754333	24.647836640393272	15.14329293876839
O	7.359661186744396	24.149242531526045	14.482277829600765
O	7.301297857655566	22.678259543390478	14.795767293796406
O	7.863066274919086	22.186413518584892	13.493346120618575
O	7.535038359641419	21.005374038392254	13.122324401156964
O	6.539716527096203	20.13370462068283	13.742307185037575
O	6.28846308131066	20.885265492793053	15.02340144493714
O	5.559761236993353	20.297019489743327	15.884106528594057
O	5.376863884310783	18.90612350956961	16.137137919814354
O	5.796392037365221	18.33674928698335	17.44750509336076
O	5.638826608713481	19.188971031371825	18.661829326011553
O	5.255980772650129	18.3610663657784	19.83784423821671
O	5.591719529541541	17.144322639871326	19.93219264619834
O	4.758451323409403	19.04755415690012	20.948672816611158
