81

O	-0.4982110907962962	3.7774943380740744	0.36765043457407404
O	-0.4670208107962961	4.414155408074075	4.666244868574074
O	-3.413376870796296	-2.0829942419259253	-0.605651009425926
O	-2.668164331796296	-1.5297598019259255	0.511225471574074
O	-1.1993279167962962	-1.6880468419259254	0.29181222757407405
O	-0.9735029397962962	-0.5292496319259254	-0.655207710425926
O	-2.181176042796296	0.06332899107407453	-1.377570211425926
O	-3.091271060796296	-1.0220638819259253	-1.572779421425926
O	-3.113114710796296	-3.4961877619259254	-0.7474784684259259
O	-1.970612391796296	-4.020338221925925	-0.17488649842592596
O	-4.099149530796296	-4.419673071925926	-0.5320108444259259
O	-2.7613564607962964	-0.22788406192592547	0.594561120574074
O	-1.7318488212962961	0.2621973710740746	1.543551498574074
O	-3.104286930796296	0.2630231190740746	1.9266211985740738
O	-1.7392219870962962	1.5907486700740745	0.9873248285740739
O	-0.41369871079629617	2.2844018780740747	1.305890758574074
O	-0.12286211079629616	2.6698340280740744	2.7644116685740743
O	-0.6434188207962961	4.011440748074074	2.967814498574074
O	-1.961254675796296	3.9642851980740748	2.267073558574074
O	-2.457888319796296	2.789383428074075	1.537399978574074
O	-2.297644362796296	1.4547563340740746	-1.1981275744259259
O	-3.6094058207962965	1.8661987980740746	-1.091037344425926
O	-4.371591180796296	0.7889033122740746	-0.775240753425926
O	-5.590707150796296	0.13931965807407454	-1.155779267425926
O	-5.924383110796295	0.11959294407407461	-2.645705751425926
O	-4.561613230796296	0.4871734200740746	-3.052264031425926
O	-3.6914327207962963	1.4939620030740746	-2.505163631425926
O	0.2630334592037038	-13.331508201925926	-0.5829317634259259
O	5.857935439203704	-11.013475801925926	-3.847009831425926
O	1.6404195192037037	4.788013408074075	-8.908828211425927
O	2.228355769203704	10.679380448074074	-8.897765001425928
O	-1.0599506097962963	8.105295008074075	-11.899406681425926
O	-2.7758297307962962	7.483748488074074	-8.566000221425927
O	-4.900777750796296	3.2044232380740745	-10.600551981425927
O	-7.582573890796295	4.191392838074075	-7.988773511425926
O	-9.961525130796296	2.5446270080740745	-10.517660181425926
O	-8.248926830796297	-0.8568664919259255	-10.695378981425927
O	-2.694554540796296	12.089376898074073	1.504170278574074
O	-6.084740510796296	11.399436598074074	3.2035945085740742
O	-7.251426060796296	8.900698768074074	0.528761232574074
O	-4.0174804007962965	7.030687888074075	0.9021886285740739
O	-4.533069700796297	7.164620828074074	4.815722458574074
O	-8.069906420796297	5.813783108074075	4.5286729785740745
O	-6.970385590796296	3.2247173180740747	2.2222205285740744
O	-4.585986460796296	1.8186136280740746	4.584789658574074
O	-6.898932590796296	1.1339384630740745	7.035895108574074
O	-8.971978810796296	-1.3051798019259255	5.101294178574074
O	-5.855858420796297	-3.4468153319259254	4.252419128574074
O	-4.580370780796296	-2.9991838919259255	7.835942938574074
O	-7.775206470796297	-4.460910111925925	9.247363498574073
O	-7.751415540796296	-7.318242511925925	6.723428628574074
O	-4.135662020796296	-8.084080021925926	7.783500848574074
O	-5.133321700796296	-7.932651521925926	11.471474918574073
O	-7.691582860796297	-10.706869901925925	10.655016618574074
O	1.369341869203704	-3.8860712519259253	13.803642518574073
O	2.079810509203704	-6.032898131925926	9.667189818574073
O	5.303764989203703	-4.052324381925926	9.145753648574074
O	5.057902519203704	-5.587513971925926	4.524762748574074
O	8.816712719203704	-5.608777821925925	4.0655272485740745
O	6.1993334992037035	-6.531882231925925	-0.482683744425926
O	8.802959019203703	-3.706219831925926	-0.47793830342592597
O	8.344076119203704	1.1228822790740747	-3.5192967514259257
O	5.711195699203703	-1.2578122919259256	-2.281285191425926
O	3.2619928392037036	-3.7256323019259256	-3.7727257614259258
O	-0.32314252079629613	-3.0429263919259255	-3.243309981425926
O	-3.760145620796296	-4.597549341925925	-3.7756653714259256
O	-2.658975770796296	-8.182481391925926	-3.6122123414259257
O	0.383814829203704	-7.3173099319259265	-5.710891911425926
O	-1.4546567987962962	-5.699310001925925	-8.650024021425926
O	-0.07192686079629618	-2.2024362219259253	-8.008018211425926
O	3.3227455792037035	-0.7569350819259255	-7.076092361425926
O	3.5873900692037037	2.5713938280740747	-5.338834271425926
O	6.849360239203703	4.291091778074074	-5.379176471425926
O	8.640066819203703	5.275214858074074	-2.219215021425926
O	9.180382519203704	8.699238878074075	-3.7674961414259256
O	5.448961819203705	9.319814398074074	-4.249379871425926
O	4.744182819203704	8.465347758074074	-0.6067720914259259
O	6.029682279203703	5.009720428074074	5.157221498574074
O	9.129646519203703	1.1730054680740745	7.077338118574074
O	11.086562219203703	1.3258912960740745	3.814479658574074
O	12.460680719203703	-3.1824907319259252	5.022952788574075
