81

O	-2.1594581381133335	0.5428994634000003	5.786182472175
O	-1.8404942591133338	0.3150840680775003	4.4048479221750005
O	-1.6347641511133337	-1.1052398125999998	4.153289562175
O	-1.0101697251133337	-1.5767811625999997	2.903850492175
O	-1.8984823671133337	-1.1379785325999998	1.8173768521750002
O	-2.855982483113334	-2.2445007025999995	1.6073616921750002
O	-4.130529245113333	-1.5581631525999997	1.1182598651750002
O	-4.296794615113334	-0.8187454725999999	2.450714732175
O	-4.140717425113333	0.5137588244000003	2.041140442175
O	-4.7240960951133335	0.9298891294000002	0.9810166061750001
O	-4.546403935113334	0.2707202440000003	-0.3567879738249999
O	-3.250389175113334	0.6349505244000002	-0.5450206238249999
O	-2.6201552991133337	-0.016744231599999715	-1.663285097825
O	-2.0241304585133335	-1.2183958625999998	-1.3170848178249999
O	-2.894559575113334	-2.3482134225999998	-1.718481037825
O	-1.8892393241133336	-3.4097526825999998	-1.4158002178249998
O	-0.7812093551133337	-3.2739399725999996	-0.5705555778249998
O	-0.26608645511333373	-4.0666740526	0.5170632035750001
O	-2.3030171991133335	-0.4060396405999997	6.5715304921749995
O	-2.3589396231133337	1.7936851974000003	6.252025162175
O	-3.555660635113334	-0.18368855259999972	-2.585440917825
O	6.403528284886667	-9.0169428826	9.335041412175
O	7.3737004548866665	-5.9930102326	7.179482602175
O	12.419789114886667	-2.0636022425999996	7.416662572175
O	10.481794714886666	-0.4001708205999997	4.593568182175
O	4.321940104886666	8.0633305774	8.367484832175
O	1.1906157948866665	10.188113727400001	7.790309892175
O	-2.2078346691133337	10.762065767400001	2.194717922175
O	-1.9938466603133338	13.1536551674	-0.7635875578249998
O	-5.559557825113334	9.1047442174	8.073702962175
O	-8.664005225113334	6.871051057400001	7.7138162621749995
O	-5.193806535113334	6.1028098574000005	12.341095512175
O	-11.915690355113334	5.449672817400001	-5.438844377825
O	-14.149658285113334	2.5986928974000003	-4.185686177825
O	-13.045262685113334	3.0001310674000004	-0.520640968825
O	-9.423674895113333	2.7418093574000006	-1.6114968278249997
O	-10.166830545113333	-0.3282822495999997	-3.8060623578249997
O	-12.120995985113334	-2.0148293725999995	-0.9818509878249999
O	-9.361378875113335	-1.2839040425999997	1.4102671341750002
O	-6.874215335113334	-2.9173900425999997	-0.9421935778249999
O	-8.667838165113334	-6.119085202599999	-0.7105692878249998
O	-8.444459265113334	-6.6852255226	3.0079711421749997
O	-4.645428855113334	-6.2802497526	2.892445582175
O	-4.546529875113334	-8.4114601526	-0.2849321258249999
O	-6.1658580651133335	-11.3581652326	1.4816399021750002
O	-3.816874895113334	-10.8525445326	4.472061842175
O	-0.8220108451133337	-10.909320532599999	2.049682582175
O	-2.2195274081133336	-14.0701262326	0.3556325926750001
O	1.4569589948866661	-14.5940849326	4.378323722175
O	0.2841735748866663	-15.1178374326	-5.430744007825
O	-0.3349966351133338	-11.709938532599999	-7.057713487825
O	2.224884954886666	-9.3863055526	-3.862245437825
O	3.469906314886666	-6.924495922599999	-6.533298017825
O	6.8746001148866664	-7.2357137626	-2.3494973578250002
O	4.960774164886666	-4.102008702599999	-2.764475797825
O	7.801538864886666	-2.6224689925999995	-4.767403707825
O	9.667477514886667	-2.9354408025999996	-1.4178785178249997
O	7.237424764886667	-0.36140523259999974	0.05247084017500009
O	7.324270134886666	1.9788499674000002	-3.003272037825
O	9.464820814886666	4.7429546874	-4.207216357825
O	4.269873664886666	6.8484066474	-3.369770017825
O	3.720800874886666	3.7629013774000004	-1.307546257825
O	3.7689090348866667	2.7186390774000007	2.319486442175
O	0.7246119748866664	1.6300654774000003	3.763215812175
O	-0.17103011511333377	-0.1956888615999997	7.330542152175
O	2.561527154886666	-1.7110409826	8.244980002175
O	4.488557064886666	1.4150901374000002	7.137452622175
O	2.5126948048866664	3.9628170674000005	9.194697272175
O	1.0341933748866663	5.7642885874	6.182785072175
O	2.3057640948866664	6.8526225774	2.8088390521749997
O	0.007542274886666256	7.3682034274	-0.11661648982499989
O	1.3033336248866663	9.454250697400001	-2.929305167825
O	1.491830274886666	8.1553193374	-6.473728657825
O	-0.1891364851133337	11.349629867400001	-7.562371387824999
O	-3.225453245113334	10.8541942674	-5.297993297825
O	-3.730856015113334	7.3583618974	-6.695280517825
O	-1.4279290161133336	1.3553392274000002	-9.180744067825
O	3.0836833448866665	-1.1625407025999999	-10.286159087825
O	4.993584984886667	2.0952813874000005	-9.631580087825
O	8.769257114886667	-0.9040798825999998	-8.812784517825
O	11.090324414886666	1.9640671174000002	-9.784887387825
