31

O	5.852870141503015	26.749387676357227	19.069270094089656
O	6.818134789610773	25.734015127894548	19.086188602809905
O	6.770021799237143	24.897475622208535	18.0709699856472
O	6.39614100621857	25.353938181884143	16.876852944256534
O	5.871560059349074	26.582392100729866	16.73873752108152
O	5.49972059141348	27.222890276088165	17.8489184968548
O	7.054413602338587	22.77854456485252	17.123473140666288
O	6.719751148401267	21.418946021011063	17.251467773153706
O	5.9907585802481504	21.02766405851957	16.08362511327122
O	6.980485666664181	21.222397275308783	15.063100121026649
O	7.329322060165472	22.541206139392372	14.949291745343
O	7.033178966277036	23.418495877683135	15.890442449283242
O	6.292912177650752	24.543923726089606	15.831989984717511
O	7.275696775246354	23.603957833592727	18.226408432177937
O	6.894193441486436	22.978264280812404	19.49857743079273
O	5.579784469523024	22.250124347815735	19.056261488054396
O	4.989535239448886	23.177469392794933	18.182776700292536
O	4.183703365039687	23.96802515930568	18.885113424236916
O	4.187362540641363	24.06288761180406	20.239018023139124
O	3.483395206464782	25.13218686708399	20.664257342121925
O	3.1193714912557846	26.15987428048203	19.85544848913228
O	2.7508286273923654	25.782109080971363	18.557409004172726
O	3.4040616637156256	24.714815887676124	18.095642526913373
O	2.386709751007942	27.12581996095433	20.668130791138097
O	1.1605225245229969	26.3927089671466	20.534828405256366
O	0.24889989963240655	25.976262590834153	21.505912787620176
O	0.8028031200491972	25.121552272874055	22.21190659263731
O	0.7841313881726757	26.319153438043283	19.266673694685963
O	0.5916150524747792	27.590746792360743	18.811528324225133
O	1.40606335241426	28.718925968781125	19.298467555334483
O	-1.0971998720268052	26.149791004840587	21.312830809935694
