38

O	13.933916606980727	4.968365845234441	35.45161421578452
O	10.843157420859777	4.771790008114502	36.99994331569524
O	11.278782510522845	6.199231988402177	39.94795877437968
O	18.705484097591967	-2.8846263104294274	35.0114190334999
O	18.233554545478945	-1.923940574213567	36.05822140066401
O	17.565274124532447	0.4217870064013858	35.63739909845664
O	17.71833806241527	1.4693441966303529	36.472560128251686
O	17.0881627935417	0.8182020119172644	34.45339128625475
O	16.994018165896822	2.5820208018292745	36.224523019852
O	16.059550332005603	1.6809071899930403	34.38794076816555
O	15.882512259832144	2.4857128692955843	35.463828384911935
O	14.53422481981097	2.1825288124511966	35.71859202202819
O	13.651664481696404	1.2210837542738278	35.27670621161123
O	14.789402606503817	0.3385048102676014	35.981386398663915
O	19.191335201547812	-2.0794929002202216	37.13272730993551
O	16.835791108137393	-2.1751708373033405	36.12160288682848
O	18.385439342859094	-4.020931925514615	35.334143775633265
O	20.06282934990863	-2.7222322781033044	34.87600907278089
O	18.372189286413448	-0.7363705565881	35.478331375115005
O	13.28417743660286	0.9261914602325474	37.107113897242385
O	14.664078652814922	2.2769440128878333	37.916121617976806
O	14.649259029328444	3.433429471292213	38.07555017316768
O	14.410543676521737	4.717804502174394	38.322208228734986
O	14.172802264664337	5.333254466107178	37.128045513274685
O	14.807186764566747	5.417051638433019	39.40624826835009
O	13.793525674286142	6.606815619272863	37.11083819879466
O	14.32295088867248	6.656561518725935	39.5068816873152
O	14.111777568168845	7.255604395805079	38.25668026970064
O	14.791712616888407	0.957666981993859	37.23846523034573
O	12.78749712519104	0.3337379793898392	38.00304198624349
O	12.032763640927946	2.859607344866572	38.104704784132245
O	12.2807907823317	2.161436090914827	39.28187994293914
O	11.807358832277616	4.153056674567732	38.268173052917255
O	12.527887302106809	2.728864381587254	40.49717784194535
O	11.903799219478778	4.647178341542496	39.540953045289335
O	11.961857905065887	3.934439744212691	40.740155448607965
O	12.54194743615486	2.19349710864496	36.91171598380701
O	14.805212086658402	4.810465077480408	40.57709650984894
