30

O	7.256399991687214	21.34596464101993	20.89076468788321
O	8.547548472048216	25.43603045763573	18.39930739749031
O	6.808502122641014	25.634602509263708	20.016866477293416
O	6.769854088584329	24.02609057048927	14.281108895640202
O	6.4937417378120275	26.127988231475292	17.70149095776737
O	5.397115152197484	23.812985471061836	16.52593993791123
O	6.859455609981685	18.50402957442084	13.06607351464189
O	7.8582617993260095	19.390391696619027	12.825567463763704
O	6.045054443914358	18.761149145974553	14.080143714982032
O	8.126266635550259	20.395385199918802	13.757849409494348
O	6.544101577311363	19.744550151490476	14.85086797504049
O	8.078890955603956	21.50874458855849	18.30127823557176
O	6.900658056153167	25.795768896411	16.342610722913385
O	5.230003113045378	23.70892776635608	17.956629933665987
O	7.275258508027725	24.270064710291656	16.578865334277843
O	8.307209849246124	21.436416324223636	15.608568857910985
O	8.462999402028379	20.176815745790577	16.397206054533278
O	7.2162638370278245	25.800283804123957	18.68251763241839
O	6.209004734466567	23.899888238905135	15.570227113114367
O	5.822692315303176	18.98986570476352	17.643278327870725
O	7.280660584971405	20.864104501948542	14.685318805711157
O	5.757431154001311	21.5362921286031	17.30355947923419
O	5.927329251898162	17.847563500542382	17.069199440343013
O	6.02090691096587	18.39009740840605	18.942284823701357
O	4.869023911395217	21.796131659916032	16.31301787233224
O	6.916975240974403	22.58138972487789	20.169994075978995
O	7.603292864404652	20.399702362100367	17.51077697386366
O	7.189517699552473	22.450287244962738	18.827663645677237
O	6.292074998047701	22.70314714908766	17.892275857812933
O	6.284537211920597	20.269830661683912	17.40857625760969
