23

O	7.0828651021038995	20.07686741404878	11.947903305208223
O	6.375748594383583	20.501213303406885	13.230473344488406
O	6.482500812705342	21.96085453726056	13.324494442146944
O	3.2999852691865708	27.21992531271967	19.19541493002385
O	6.4386222730105365	22.461505845357678	14.541089740027193
O	6.058662635808382	21.875407144638526	15.785928614910413
O	6.756206464024247	22.55702611226033	16.884011162076632
O	7.909647768024232	23.14576344400232	16.489133030858664
O	8.0608370981789	23.49902125170705	15.089912703349402
O	8.072995855691413	24.826189930790086	14.547540569976269
O	6.958533007626061	25.576063904410972	14.503752188440053
O	6.157816428049838	25.392369080037284	15.770110149369696
O	7.159857287048043	25.835754729702252	16.790368995076314
O	6.68766840910919	25.656467732270315	17.98747004678345
O	5.336384372071973	26.210582644277597	18.201240387141617
O	4.349201408880825	25.3643992759937	17.78234499952863
O	3.2329531011881265	25.910081679938845	18.63645522871263
O	1.8117845922255182	26.082884272512747	18.07578976547326
O	0.9098736819255446	26.585170021197705	19.2033744967813
O	-0.1922986688575392	27.429215307758856	18.823456230937957
O	-1.5209792900711694	27.623104895003138	19.188234390575403
O	-2.4009061269360217	27.989279675573034	18.393272456264537
O	-2.2596663099357253	27.711073313666798	20.334620377489852
