94

O	-2.7826854108055885	1.0163139342264702	-1.2246929138985294
O	-1.5775116338055883	1.58726601192647	-1.4134623768985293
O	-0.7230193068055882	0.8453369489264702	-2.2574157068985294
O	-0.18351980080558827	-0.08991348707352986	-1.3389548648985294
O	-1.7585481158055882	2.57587456292647	-0.4917060988985294
O	-0.47966163780558824	2.52569070292647	-0.4306972658985294
O	0.041517309194411656	3.0625701729264705	-1.6235590298985294
O	0.039490359194411795	2.0370861229264703	-2.6522270368985295
O	-2.5325449808055884	2.15904273292647	0.6210105431014706
O	0.15341936919441168	1.9942791469264702	0.5320886231014706
O	-0.5773536808055882	1.4017774999264703	1.5198352631014709
O	-1.7376490938055882	1.8985116529264703	1.857860263101471
O	-3.893927440805588	2.45971269292647	0.4279751131014705
O	1.3468419191944119	-0.03863990707352971	1.4063414731014707
O	1.4294871291944118	0.3519263659264702	0.14025384510147065
O	1.6089500391944116	1.8357203329264702	0.38254084310147063
O	0.2471624991944117	0.4822508919264702	2.0335941531014705
O	0.2715982091944118	0.35048173592647025	3.380127023101471
O	-0.21554166080558823	-0.9955453570735298	3.3744257331014706
O	1.5013739691944117	-1.3285903970735298	1.7899058331014706
O	2.8208220791944116	-1.18941284707353	2.2244365431014708
O	-2.5968823808055883	-0.3562889970735299	-0.8953761008985294
O	-1.3990912159055884	-0.8130686970735299	-0.8035498324985294
O	-3.1693161408055883	-0.45596660707352976	0.32385708310147054
O	-2.499765940805588	-1.22647785707353	1.2015710331014704
O	-1.2645646760055882	-1.3769927570735296	0.4000953531014707
O	-9.654803200805588	-0.9351555070735298	11.95358704310147
O	-11.306414670805587	-0.9222766070735298	-4.954475136898529
O	-10.692819480805587	2.68856755292647	-8.56264329689853
O	-13.385582480805587	5.69379632292647	-5.426691566898529
O	-10.822542320805587	8.24016741292647	-6.701648606898529
O	0.12321989919441179	1.7843460449264703	-11.12607225689853
O	1.8214776291944117	5.22389085292647	-10.96997955689853
O	-1.3110036198055883	6.990742582926471	-9.54972903689853
O	-1.5431554368055882	4.435140672926471	-6.86502810689853
O	2.3385161791944116	4.6973921329264705	-6.132488746898529
O	1.9811451691944117	8.47942501292647	-5.944538646898529
O	-1.0686082448055882	8.10192232292647	-3.6317924368985293
O	0.8485033091944116	6.022838532926469	-1.2821577578985295
O	3.4564111491944116	8.47287095292647	-0.7814507730985294
O	1.0933722291944117	11.12470380292647	0.5484290931014707
O	-0.17185142080558835	8.73558964292647	3.2114448531014705
O	3.420807199194411	7.51771877292647	3.828449923101471
O	4.627486709194412	11.05611784292647	4.603557673101471
O	1.5636411491944118	11.66262280292647	6.80247239310147
O	2.392288739194412	8.45214191292647	8.69782024310147
O	6.047507719194411	9.55026045292647	9.00510761310147
O	4.800105949194411	12.75962880292647	10.76873704310147
O	2.627556959194412	10.69414263292647	13.14445554310147
O	9.159297119194413	2.3567075029264704	7.617733323101471
O	4.6844089291944115	2.0228012109264704	9.06511699310147
O	4.514691209194411	-1.6955450170735298	7.966968173101471
O	-0.35608444380558824	-1.2663144370735298	8.37005657310147
O	-0.8522291818055883	-4.970733787073529	9.24117522310147
O	-3.548750690805588	-3.5772786070735294	11.623106343101469
O	-5.521929340805588	-2.3983939070735296	8.54569150310147
O	-4.937804590805588	-5.62519819707353	6.5197616631014705
O	-6.867932490805589	-6.4036356370735295	1.1838704231014705
O	-6.015289030805588	-3.11763451707353	3.010677373101471
O	-7.974233190805588	-0.19190716707352973	4.415922963101471
O	-7.245532220805589	3.22749416292647	2.891538353101471
O	-8.135187020805589	6.86443551292647	3.378992643101471
O	-10.633140370805588	3.37805762292647	6.676267083101471
O	-11.750021780805588	2.5027996829264705	1.266584673101471
O	-10.505086100805588	-1.06601660707353	0.9624595531014707
O	-8.010018790805589	-2.0133367070735297	-1.7330505928985294
O	-7.980225960805589	-5.71205102707353	-2.5514514168985296
O	-4.788836330805588	-7.739239807073531	-2.4717790168985294
O	-5.930711620805589	-5.55897125707353	-7.425688566898529
O	-2.5288824708055886	-4.54331153707353	-6.092053526898529
O	-1.0771715088055882	-7.839861487073531	-7.349787836898529
O	-2.576830690805588	-7.116006747073531	-10.82588505689853
O	-0.41198638880558824	-3.98762005707353	-11.26354895689853
O	2.3407863491944116	-4.11247771707353	-13.870945656898531
O	4.538199119194411	-1.9482990770735298	-9.02007966689853
O	2.590862749194412	-5.1683662370735295	-8.49543065689853
O	5.384399549194412	-6.500280797073529	-6.254479426898529
O	5.285486049194412	-3.6682019170735294	-3.740655076898529
O	2.4913591591944115	-4.7905665870735294	-1.4442896898985293
O	2.4921085791944115	-8.544459117073531	-1.5502250138985294
O	5.411862229194411	-9.12495539707353	0.9366996331014706
O	3.5393737991944114	-6.93130153707353	3.4173220231014705
O	0.3173405691944118	-8.946375997073531	3.1124835131014708
O	2.437207609194412	-12.03987769707353	3.6371014431014705
O	3.9155570891944116	-10.48390329707353	6.818345003101471
O	0.5603264291944117	-9.07152719707353	8.01422170310147
O	-1.3310562670255883	-12.37529189707353	7.893576643101471
O	10.314918419194413	-6.06615174707353	4.212153583101471
O	11.974450019194412	-2.61232180707353	4.1563458231014705
O	10.730273319194412	-2.15582917707353	-0.6976169255985294
O	14.006955019194413	-0.16069503707352983	-1.0317661658985293
O	12.409614819194413	1.8080951739264703	-5.306119396898529
O	11.978570219194413	2.53202453292647	-10.21575821689853
O	10.715633019194412	4.30492839292647	-14.22892685689853
