32

O	11.52300589484565	39.05890236586652	23.00772398860269
O	15.011246692436421	38.46755716233159	29.97085272928497
O	10.203071136097984	40.542074154871365	26.48765889032405
O	11.388835133654498	40.57820195375535	23.00863157301074
O	11.513288260216072	42.33109854457682	21.47194088472811
O	15.196663389405044	39.30819335980359	30.9832042133087
O	10.569099990754665	40.488026633836185	20.657242208552113
O	10.382999323644176	40.76975277785534	24.06797499484563
O	10.676636398301314	40.58087711712206	25.2988664354765
O	11.874095065502535	37.42924055515792	28.391642822913138
O	11.70141415927843	38.30415059727076	31.276050231350983
O	14.054914722750057	39.120922903623935	31.649189631709547
O	11.102937859493398	41.18023836022661	21.715768895267562
O	11.519285992601166	38.654741177199476	24.46611673621866
O	10.592692745626794	37.90724681270956	25.071968634867154
O	10.827698503265287	37.37009195320755	26.301017164113482
O	11.873764932306598	37.820091990429894	27.039738949725212
O	12.925905593051027	38.21446793209543	26.337383787768474
O	12.683510926069424	38.79703050356284	25.131305741722596
O	13.168612953034497	37.250713321509224	28.845965936729016
O	13.66023786659641	38.28162350979622	29.752039604773
O	13.125780777923387	38.547054041046934	30.97481887856302
O	18.588845440501903	40.64390847416068	32.08511075956822
O	17.70829852320867	39.7162162871891	31.483857730865218
O	16.361724244627467	39.76365447576945	31.754531997581953
O	16.24323346721748	40.335488667407866	33.021588944113546
O	16.89692783337984	41.50746515588178	33.40479399678545
O	17.93019428619621	41.81142806542201	32.51632204816189
O	10.120871201824857	39.97700244699127	27.713193297366868
O	10.468178406021908	41.10593676144876	29.938116256329845
O	11.063017293794807	40.45773193723627	28.752559064715598
O	8.98470850672479	40.206262459867844	23.900814419215266
