94

O	-2.72495781103125	-4.479799415026562	-4.292997551451562
O	-2.39810462103125	-4.890451735026563	-2.8903291814515626
O	-3.5348756810312496	-4.419020465026563	-2.0851255114515626
O	-1.10899658303125	-4.4839445750265625	-2.6319219614515625
O	-0.83608130103125	-3.2845218950265633	-2.0115283914515625
O	-0.7618649950312499	-3.090013055026563	-0.6702812734515625
O	-1.19419624283125	-1.837395455026563	-0.3163434784515625
O	-0.9020102060312499	-0.5684588950265632	-0.8349009364515625
O	-1.2765589619312498	0.16655954597343692	0.3537136185484375
O	-0.1366307510312499	0.03362172297343691	1.2445641385484374
O	0.5458091589687502	-1.2125837650265632	0.8070880385484376
O	1.4570018289687499	-0.9100463250265631	-0.13704090445156247
O	2.1279311589687504	0.28645277197343694	0.17371210854843744
O	2.54882824896875	1.187292671973437	-0.8279820504515625
O	1.9136357989687502	0.8540457939734369	-1.9668212434515624
O	0.9522906189687499	1.748760214973437	-2.4734924914515624
O	0.12041439896875006	2.017527424973437	-1.6825592684515625
O	-0.3985073510312499	2.777464954973437	-0.7271523724515625
O	-0.67529232703125	4.074164664973437	-1.2172008124515625
O	-1.31154677713125	5.126223314973437	-0.5352331494515625
O	-1.54034060603125	4.965239464973437	0.8772394885484376
O	-1.53059075403125	3.5883928549734367	1.0670610385484374
O	-0.33359070503125	3.012582654973437	0.5984093285484375
O	2.05917863896875	-0.4074868930265631	-2.320391941451563
O	1.99794070896875	-1.371736405026563	-1.2842197724515625
O	-0.9014356550312499	-0.9379872450265632	-2.0954478414515627
O	-0.57023182203125	-2.124484855026563	-2.6632464914515626
O	-2.3702034510312497	-6.374548145026563	-3.1025556314515628
O	-3.49814774103125	-6.837926875026563	-3.4655078214515624
O	-1.35678113503125	-6.731392705026563	-4.013432301451562
O	-6.36065430103125	13.218846864973436	-2.5237427214515624
O	-11.40061334103125	10.263823934973436	-4.617794181451562
O	-10.24829458103125	6.360136654973437	4.621214118548438
O	-8.82924794103125	2.811138204973437	4.849211188548438
O	-10.680722021031249	1.690750884973437	1.7115384685484376
O	-9.57881740103125	4.773354884973437	-0.26043116145156253
O	-6.13380471103125	4.122149384973437	0.8010045885484376
O	-6.38439513103125	0.4259831596734369	-0.06952089845156251
O	-7.5853732710312505	1.3525481119734368	-3.505782471451562
O	-4.67492027103125	3.6798615649734367	-4.1948968614515625
O	-2.75963858103125	0.8276970709734369	-3.3331540514515625
O	-3.9114173210312497	-1.3282017350265631	-5.717370791451562
O	-3.2869473810312497	1.114916160973437	-8.412979291451563
O	0.3043658989687501	1.4050704429734369	-7.357462951451562
O	0.9349944689687499	-2.355615225026563	-7.256609261451563
O	-0.61968839903125	-2.7455521950265633	-10.646823301451562
O	1.8115991489687502	-0.20540962502656307	-12.049082911451562
O	4.8102302289687495	-1.796125385026563	-10.311382181451563
O	3.80431136896875	-5.260562465026562	-11.437598611451563
O	3.5154067989687494	-3.8421862950265635	-14.959674111451562
O	7.022958138968749	-2.344179235026563	-14.754823511451562
O	5.81783800896875	-9.122553515026564	-4.5737100214515625
O	9.25698965896875	-10.271676735026563	-3.3940670814515626
O	10.62145135896875	-7.676379255026563	-5.831863601451563
O	8.064413568968751	-5.118431335026563	-4.843072561451563
O	9.00270265896875	-5.361198075026563	-1.1096007424515626
O	10.07941925896875	-0.47407651102656306	-1.4192059814515625
O	11.08035955896875	4.384944064973437	2.5232615485484375
O	12.08148195896875	5.1110837349734375	9.223935288548438
O	7.212788768968751	6.741501274973437	6.069018368548438
O	7.2357321789687505	6.205920924973437	2.289524388548437
O	7.068139058968749	8.241621524973437	-0.9342261015515625
O	3.91198172896875	7.708983544973437	-2.9874567214515624
O	2.0726774989687504	9.013594564973436	-6.069401541451562
O	5.18792885896875	9.004059334973437	-8.195745431451563
O	7.25570626896875	10.901574864973437	-5.629427081451563
O	4.663432178968749	13.627180664973437	-5.0509175914515625
O	3.4604749189687496	12.477631764973436	-1.6644037904515625
O	4.87953752896875	11.014400064973437	1.5435972485484377
O	2.6247431589687498	8.998352484973436	3.842903188548438
O	4.41963575896875	5.242786664973437	9.184545488548437
O	-0.69554182303125	3.975200694973437	8.708748768548437
O	-0.45869474103124996	2.420705994973437	12.147147688548438
O	-3.4476239010312497	4.524156634973437	13.297016488548438
O	-5.78933067103125	2.998177934973437	10.701612888548437
O	-8.24193609103125	0.3298399109734369	11.825129288548437
O	-7.37373680103125	-3.346566185026563	11.483015588548438
O	-6.70055616103125	-5.099160775026562	9.222756988548438
O	-5.50010533103125	-2.1531456250265633	7.1984075085484385
O	-3.05733250103125	-0.9777511750265631	9.928067488548438
O	-0.2525458400312499	-4.228054855026563	6.150761948548438
O	2.7920534089687497	-1.949616055026563	6.410642068548437
O	7.56547784896875	-4.030763435026563	5.315778228548438
O	8.90908135896875	-0.9154226950265631	7.066728658548438
O	5.241947378968749	-12.384458335026563	0.8792950585484376
O	1.30778192896875	-10.754577635026564	3.1949607185484377
O	-0.7336939460312499	-13.163408435026563	0.9582357485484374
O	-3.4744503110312497	-11.110866435026564	5.150490898548438
O	-4.67269641103125	-10.291750835026564	1.5978598985484374
O	-6.9264681410312505	-13.381464735026563	1.6946724285484376
O	-8.38656271103125	-12.162055935026563	4.962458208548438
O	-9.06568885103125	-8.712394595026563	3.5780154385484373
O	-8.84108943103125	-6.9161844650265625	-5.807418511451562
O	-7.94505360103125	-5.488204185026563	-9.211909851451562
