39

O	6.015045646189879	19.463010454890476	12.684901909619986
O	5.939550737087003	18.72704687472633	13.74927484081864
O	5.668262618753673	19.43084005161352	14.975549554732076
O	5.737305279672786	20.698012454896578	14.830663640879777
O	6.872540534817219	21.193067568771482	13.966877740971512
O	6.649756141006348	20.71535258742742	12.66270651166769
O	5.206757244941912	21.81402348433444	15.177135467463245
O	6.175095787201701	22.77526937001869	15.040646981839604
O	6.530637709294506	22.583734287104964	13.775317811815585
O	6.916462614404239	23.608206698092964	15.957831513687598
O	6.829946923424121	24.885053420902974	15.517008392158054
O	6.850994965976829	24.904353554003105	14.14821482756721
O	7.262326234968792	23.71425703094914	13.464000700132278
O	7.696515869111117	21.018232791499596	12.068368716796366
O	5.672202260117736	18.943640698429192	11.381146854884562
O	4.437329711289582	18.05117521977653	11.402956622403119
O	5.398556174009703	19.884186346616783	10.522584760426096
O	5.1152824299944175	17.582545457369992	13.586557401028761
O	8.044097748652607	20.534644490803505	14.580207862338364
O	8.061669837497451	23.342267830066024	12.407109683712966
O	6.599729631688907	23.029604011355655	17.222635607493835
O	6.927265001847181	21.792570079223985	17.279395734968727
O	5.184486683905682	22.56703372771292	17.19837507814649
O	4.385533248511291	23.68898963528197	16.67041637009673
O	4.594705059657912	24.80518560881539	17.67985654139682
O	5.346529050150668	24.209080088676014	18.701861736917493
O	6.247106265447122	25.220207203383467	19.018067209289633
O	5.5369054699822815	26.340634990882712	19.359216012321337
O	4.561419010293774	26.831465466891885	18.519785551938263
O	4.5009453891627995	26.15635642721657	17.355824334942533
O	3.8666242272442934	27.998896569877154	18.65436536552969
O	3.4576003703433624	28.610800655074772	17.46598900576786
O	4.233994371418327	28.191677325951787	16.372779624011084
O	4.223521528002325	26.782477372599896	16.216749573315496
O	7.4520421869403695	25.829178319792867	16.281482421176992
O	7.450491087568802	27.200628180704232	16.296877353860864
O	7.556467701713246	25.206724247165084	19.25343694399074
O	8.200234784438496	26.453384482867097	19.36184070650802
O	7.446115947748511	27.12156562343894	20.518629698780398
