34

O	9.233211301984976	23.21198686748602	13.367557029721478
O	8.018216946575821	23.105998316594214	14.176594065166343
O	7.716465601293541	21.995972001596087	14.74770418179255
O	6.7922868099658515	22.26979267319365	15.583625045360218
O	6.712464820476518	23.527192932206912	15.826596471023123
O	7.448500732638719	24.147183643310655	14.818270602382606
O	7.561382046504746	25.465423547229207	15.148853495886865
O	7.754058142228363	25.955942088230813	16.479530346678715
O	8.019075912564816	24.824034459669647	17.13224326426858
O	7.018013193094491	23.91539130062707	17.122991383791735
O	7.426358899180296	23.03922158020593	18.306426824529176
O	6.666968597953524	21.89644385305183	17.909907576418757
O	5.292964344813568	22.289350557365736	18.478223394088843
O	8.353943904180511	25.240519233687127	18.33268331969159
O	7.395337710196911	25.00609755915704	19.243595929445327
O	7.125629946274148	26.266372316912822	18.49131176230687
O	6.260536998404866	26.463047098492343	19.795664260253
O	5.491466786918184	25.23567428929697	19.711438102787078
O	5.302534154927027	25.435001944679424	18.381024974185966
O	5.570183849693889	26.582078255615382	17.50408439558048
O	4.402941684833891	27.3457078882147	17.679190703616115
O	3.2378662476735234	26.599314198327644	17.912424333942088
O	3.718169786918676	25.595203288542997	16.98742445535245
O	4.9443404589485915	24.943392397937888	17.18848043915455
O	3.79931552984781	28.281186439077302	16.895204919338447
O	2.9961004308317976	28.600640061159833	18.050675389273337
O	2.1804090299856203	27.483459933321285	18.021210595891883
O	1.203645645311477	27.329062640811344	18.996156103473993
O	0.11766530093505967	28.187074987618132	19.30803942364074
O	-0.4747811827609283	29.111826707206742	18.673747990540786
O	-0.9726029128760141	27.635723671239006	20.014197488039418
O	9.710339608176374	21.957937147246255	13.18235212751591
O	10.038381208947738	23.79388341754714	14.257466308814505
O	8.658879321881528	23.659156446020816	12.288824599247388
