75

O	-1.8652453275892857	-2.0067414017892857	-1.9811268849625003
O	1.6863702734107142	-3.1222228517892856	1.9126384250374997
O	0.6952408034107143	-1.5139440217892857	-1.9960839049625003
O	-0.7905848495892857	-3.5289923317892855	0.5833275700374998
O	-2.2849371065892856	-3.9507561117892855	2.8472635550375
O	-0.39156390958928566	-1.8111518317892856	-1.1720407649625002
O	-0.5555004185892857	-4.101743401789285	4.199148175037499
O	0.023335773410714244	-2.6978383617892856	-0.21647754096250021
O	1.1234344134107141	-2.2566905717892856	0.5099945850374998
O	2.2080240734107144	-2.041200391789286	-0.3968108469625002
O	1.7354161534107142	-1.0071475987892857	-1.1586061349625003
O	-1.3551470843892857	-1.6854142717892857	1.8915040650374997
O	-1.7746017025892857	-2.6890607417892856	1.0693667350374998
O	-2.9583699965892856	-2.7110932217892856	0.3703851480374998
O	-3.815733816589286	-1.7023114417892857	0.7087489160374998
O	-3.1930718365892856	-0.4712626637892856	0.9684032050374999
O	-2.2027639095892857	-0.6253517187892856	1.9481660150374998
O	-0.8320968555892856	-2.0900083417892854	3.1915758550374997
O	-1.5456912425892857	-3.3001879817892856	3.6122341350375
O	-8.966496806589285	-3.469363611789286	-8.240957984962499
O	-7.930134076589285	-1.9007682917892856	-4.8709102149625005
O	-10.227149556589286	-2.7598812317892856	-1.9717533849625004
O	-8.573226056589286	-0.09895415458928564	0.2903535560374998
O	-8.855125326589286	3.401655388210714	-1.3446339649625003
O	-7.2741800465892865	6.7222454982107145	-0.2984461179625002
O	-10.790479476589287	7.869470488210714	0.6667232810374998
O	-11.140335786589286	5.038566208210714	3.1936235250375
O	-7.530224186589285	5.373495628210715	4.3903785750374995
O	10.591494043410714	-7.233569061789286	5.7475060950375
O	5.689303993410714	-9.354254271789285	6.0076491550375
O	6.021803543410714	-6.446596421789286	3.5445026250374996
O	6.667926153410715	-9.034179081789286	0.7608197180374998
O	3.3729438434107144	-10.834189811789285	1.1260756650374997
O	1.5270360734107142	-7.535168421789286	0.8498490690374998
O	3.8014022334107147	-6.410446211789286	-1.9640540649625002
O	2.9903904534107144	-9.496136961789286	-4.0981292249625
O	-0.7371446035892857	-9.067743651789286	-3.3146285249625005
O	-0.4221106795892857	-5.4004683917892855	-4.4825706549625
O	1.3986432334107142	-6.567869831789285	-7.6771137049625
O	-1.7027680955892857	-8.740113591789285	-8.364993764962499
O	-4.017572356589286	-5.760492311789286	-7.759279174962501
O	-1.9913924905892857	-3.4434617317892857	-10.046518394962499
O	-1.8721026225892858	-6.049833911789285	-12.795085054962499
O	-5.671087686589285	-6.425064061789286	-12.6490300549625
O	5.9441443734107136	0.23315675321071436	-13.404230354962499
O	4.672713193410715	-1.9059319017892857	-10.5811401549625
O	6.759114503410714	-0.6306871007892856	-7.6256779149625
O	6.3579509834107135	3.003481888210714	-8.759078504962499
O	2.5871474434107142	2.3814581782107145	-8.416709024962499
O	2.9764462034107146	0.5565678772107144	-5.142529834962501
O	4.792805323410715	3.5559439882107142	-3.5662315049625004
O	2.2695085834107145	5.988459638210714	-5.0549838449625
O	-0.6199518935892857	4.148657248210714	-3.3894519249625
O	1.1935976634107144	3.4557123982107143	-0.14976247236250023
O	1.4366102234107143	7.2948822582107145	0.27821257603749977
O	-2.4098952265892857	7.092138628210714	0.5055967030374998
O	-1.9372474955892858	5.006478438210714	3.6944650350374997
O	0.8153658634107144	7.207470418210714	5.1734262250375
O	1.6618115134107145	3.7484948182107143	7.755210875037499
O	-1.5474515115892857	1.7293301682107143	7.7579500950375
O	-1.0069993905892858	-2.0309315617892856	7.455592615037499
O	-3.2919051865892857	-5.191735241789286	7.306244055037499
O	-6.091976446589285	-3.569419681789286	5.3370147350375
O	-5.992797486589286	-0.5358134237892856	7.618858215037499
O	-6.340356216589285	-2.4395093217892856	10.9004480450375
O	-2.808569306589286	-1.6340404117892857	12.0683517450375
O	-0.6547039235892856	1.4824840682107143	12.0564691450375
O	3.1185243234107145	1.1440409582107143	12.1257133450375
O	7.591602953410714	5.829542568210714	11.1311410450375
O	10.567862043410713	1.5270717182107143	11.2663412450375
O	10.658924143410713	3.026885628210714	4.5263895550374995
O	7.561059803410714	8.656445148210715	4.0392829250375
O	4.455494333410714	10.567212088210715	0.8009976920374998
O	2.9392295534107142	13.881600788210715	-2.4186602349625
O	-0.017472656589285762	14.043674788210714	0.011372923337499785
