85

O	1.8116593359868842	-2.2989588506557377	0.46767770737704906
O	-2.0195082840131153	-3.6757219506557375	3.5514193973770487
O	1.6363331659868843	-2.647887360655738	-0.814886990622951
O	1.5428042859868847	-0.9865670406557379	0.601413037377049
O	-2.5874710540131156	-4.029310690655738	2.365277927377049
O	-0.7198301910131155	-3.199043750655737	3.400052107377049
O	1.3632510359868846	-1.8220168406557378	-1.8922834106229511
O	1.1393893959868846	-0.16507088065573772	-0.46161796662295096
O	-1.9327731040131155	-3.600470360655738	1.2041810373770492
O	-0.5253889731131155	-2.394433000655738	2.345825697377049
O	-2.0662033940131153	0.5545496333442622	0.019406659377048996
O	-1.7587665240131156	-0.7045194906557377	-1.798221887622951
O	-1.8105632340131153	-0.4903826206557378	0.824558567377049
O	-1.7357966840131156	-1.8488873906557377	-1.006624745722951
O	0.2298093039868846	-0.10156899065573777	-2.938377082622951
O	-1.2918635190131154	1.7250706163442622	-3.225559372622951
O	0.8688814259868846	-0.5775244806557378	-1.708882663622951
O	-1.3771157560131155	0.4413324763442622	-1.122231009622951
O	-1.0396195980131155	-2.602717140655738	1.115658007377049
O	-1.4734320240131153	-1.6220721506557376	0.2554553073770489
O	-0.028234424013115433	1.2631578613442622	-2.665988552622951
O	-1.4503413640131155	2.9189336993442625	-2.982987062622951
O	-2.5610878140131157	1.3284718523442622	-2.7536363926229512
O	-0.3543020270131155	1.3909620333442623	-1.306913651622951
O	5.179650325986885	-17.481568770655738	-4.426137422622951
O	5.733231855986885	-8.106914920655738	5.078038607377049
O	1.9405141559868846	-8.503964940655738	5.153281617377049
O	1.8441500559868844	-11.002918170655738	2.273614067377049
O	4.013937875986885	-8.781801540655739	0.08954665737704892
O	1.8065558159868846	-6.017352130655738	1.024584797377049
O	-1.3898466120131154	-7.929473500655738	0.07255856737704902
O	0.1707619749868845	-8.79619811065574	-3.098088822622951
O	0.8568927659868845	-5.291077930655738	-4.072441332622951
O	-2.7541083940131155	-4.415532100655738	-3.792231432622951
O	-3.9783390640131158	-6.806445410655738	-6.381281632622951
O	-1.4083377390131155	-5.328452780655738	-8.837474992622951
O	-2.2869665940131156	-1.8089604306557379	-7.686181022622951
O	-6.050942714013115	-2.298724840655738	-8.478740372622951
O	-5.189101614013115	-3.915363270655738	-11.780654952622951
O	-3.0061257340131156	-0.8861836406557377	-12.61816715262295
O	-5.853305834013115	1.4774944043442622	-11.591326052622952
O	-8.079234764013115	-0.3039118506557379	-14.153137752622952
O	-1.0128223260131155	6.785759709344262	-7.911973812622951
O	1.3939752759868846	4.073434499344263	-10.93549165262295
O	4.742784415986885	5.311461439344263	-9.46902231262295
O	6.691741175986885	1.4785927073442622	-11.780671952622951
O	6.868171695986885	-8.090896500655738	-10.44134190262295
O	10.979161975986885	-5.825538510655737	5.926880247377049
O	9.966753675986885	-4.830645520655738	9.447888047377049
O	8.717347905986886	-1.3505424606557377	10.349630447377049
O	6.714789125986885	0.09876487634426223	8.864297867377049
O	6.552044455986885	-2.0997346006557374	5.704703367377049
O	10.251390275986886	-1.7743339006557377	4.892242117377049
O	9.813238375986884	1.9867942493442623	4.316020957377049
O	7.2723289159868845	1.7010710273442622	1.5463903373770491
O	9.439433435986885	1.0605237873442621	-1.543561083622951
O	11.300771775986885	6.453828849344262	-1.770231559622951
O	10.070436575986886	5.014457469344262	-5.107531782622951
O	6.021467855986885	10.294075769344262	-3.016996092622951
O	2.2211063359868843	9.811048099344262	-2.789423222622951
O	2.1799273859868844	11.901004229344261	0.3966453673770489
O	4.711521625986885	9.552602039344261	2.047933727377049
O	2.9273952459868844	6.469031049344262	1.014770577377049
O	-0.4244478662131155	7.746197559344262	2.335104587377049
O	2.4984800759868846	5.098508209344263	5.883227547377049
O	-0.9207670070131155	3.6696141793442623	5.142883257377049
O	-2.4182097440131156	5.839493519344263	7.935782397377048
O	-0.8994736380131154	0.8703121873442622	9.29127924737705
O	-4.615341054013115	1.7210675013442622	9.600546247377048
O	-3.9702412640131155	3.019385859344262	13.170425747377049
O	-1.5283846040131155	0.36533186334426226	14.422578247377048
O	-1.4558869240131154	-2.7127549306557377	12.100984547377049
O	-5.069556494013115	-3.8075528406557373	12.28749044737705
O	-5.2459406840131155	-6.919218870655738	7.389053097377049
O	-7.266300744013115	-4.489314860655737	5.308078517377049
O	-7.100392024013115	-2.436422550655738	2.178377817377049
O	-8.647561354013115	-3.463279710655738	-1.127203209622951
O	-11.996296124013115	-1.671176790655738	-1.328303614622951
O	-11.101013924013115	0.1837973403442622	-4.570266282622951
O	-7.997682594013115	1.489809418344262	-2.841628422622951
O	-9.897501594013114	2.480463879344262	0.26486223737704906
O	-9.371493544013115	6.296730589344262	-3.745564842622951
O	-7.6800628840131155	7.0900594193442625	-0.35884981162295104
O	-7.808031584013115	12.161932829344261	-0.36214256662295097
O	-6.456245374013115	15.643607829344262	0.5063657473770491
