77

O	-1.8997197158363635	4.601906028163636	0.4728554138545452
O	-2.1368316188363634	3.2052034181636366	0.0793837388545452
O	-2.9266647008363638	2.3580408881636368	1.0324041538545452
O	-3.6634687408363638	1.1526173001636368	0.7819220038545452
O	-3.3245327608363633	-0.13355578083636332	1.3063384538545453
O	-2.1816901018363635	-0.8833943118363632	1.0232560438545453
O	-4.2642012008363634	-0.9299161418363633	0.9332411438545453
O	-3.7799160408363637	1.0084051521636366	-0.6580092162754548
O	-2.4273893408363634	1.3402963601636366	-1.1199495361454548
O	-1.3749496194363635	0.7114379531636367	-0.7379638699454548
O	-1.9147710558363635	2.126783838163637	-2.0957261561454548
O	-0.6710761728363634	1.7158657281636367	-2.4876362761454547
O	-0.4222058708363634	0.6721289501636367	-1.5961426821454547
O	-0.10418837083636356	-0.6480084318363633	-2.191995186145455
O	1.0741545891636364	-0.5912593718363632	-2.901140776145455
O	-0.8057101448363635	-1.807247771836363	-1.8310573861454547
O	-0.01716685083636338	-2.940728361836363	-2.091410666145455
O	1.3021987791636367	-2.856785551836363	-2.608175286145455
O	1.4927437891636364	-1.7769055118363632	-3.413887646145455
O	2.640098159163636	-1.7404713818363633	-4.272790746145454
O	3.4271737491636367	-2.6671331418363633	-4.242265686145455
O	2.428531509163636	-1.0117443318363633	-5.3783679261454544
O	8.344054849163637	-9.607908791836364	-4.5915047261454545
O	10.215716049163637	-8.150858421836363	1.8657699938545451
O	4.630428529163637	7.783250748163637	4.1839459038545455
O	1.4277478891636364	11.930421408163637	6.900447263854545
O	4.9305631191636365	12.922631708163637	3.293224853854545
O	2.4618896991636365	11.136750208163637	0.9923913338545453
O	6.310219049163637	9.942795028163637	-2.173432926145455
O	3.5150400391636367	10.244219628163638	-4.729644426145454
O	6.285354199163637	11.385531708163636	-7.044981426145455
O	8.556505449163637	8.342276068163637	-6.629108316145454
O	-8.300652270836363	8.840846988163637	1.4597238638545451
O	-9.644788670836363	8.477159828163638	-2.1140447961454547
O	-6.171929260836364	8.716344138163636	-3.741180076145455
O	-4.992258480836363	5.974576578163637	-1.511964095145455
O	-8.073243650836364	3.8168102981636367	-2.2866708361454546
O	-7.618055260836364	4.410206058163636	-6.026633246145455
O	-3.958479950836363	3.556552518163637	-5.8094556061454545
O	-4.8862663608363635	0.2370844881636367	-4.0809098061454545
O	-6.8546689808363634	-0.8049564118363632	-6.913971846145454
O	-4.074125070836364	-0.6497097718363634	-9.470836416145454
O	-1.8757446678363636	-2.872853371836363	-7.324750306145455
O	-4.932253710836363	-5.101230641836363	-6.504373906145455
O	-5.557179430836364	-5.802317951836363	-10.173732096145454
O	-1.8363046638363634	-6.420025951836363	-10.790126336145455
O	-1.8721322568363634	-8.917355701836362	-7.882228236145455
O	-5.031386930836364	-10.581366191836363	-9.275807156145454
O	-3.0351638608363634	-11.179008891836363	-12.517005136145455
O	-8.679725130836363	-11.398175291836363	-2.170031676145455
O	-4.004821190836363	-10.926358991836363	-1.6875199761454547
O	-4.422922110836364	-10.370953591836363	2.097509163854545
O	0.17680991916363653	-8.633031031836364	1.9191259638545453
O	0.9754910691636367	-9.854888291836362	5.453154243854546
O	4.910494889163636	-6.932198291836363	3.318626833854545
O	3.5451640091636367	-5.8678617418363626	6.7686726038545455
O	3.1777992991636363	-0.4307276668363633	8.487398993854546
O	3.213432029163636	-1.8788897818363632	4.9849966338545455
O	5.632611189163637	-1.9247620618363634	2.0631159038545452
O	4.308660199163636	-0.24242589083636334	-1.0475405001454547
O	5.391197869163636	0.09143549516363669	-4.7149985761454545
O	7.591424419163636	-2.9956117818363635	-5.046774376145454
O	9.013660649163636	-2.356136671836363	-1.5936303571454546
O	10.214861949163637	1.1889594861636366	-2.336781916145455
O	7.722908479163636	2.8498809581636366	0.018902155854545244
O	6.549619039163637	2.1122598881636367	3.5648789038545448
O	3.285404829163636	3.3984083381636365	4.7831550538545455
O	2.6822542591636367	3.5014022381636365	8.444938463854546
O	-0.23746480083636357	1.7543727181636366	10.104155663854545
O	-0.8638338118363635	4.971340198163636	12.017505163854546
O	-1.2227598118363634	7.082568888163637	8.860909253854546
O	-3.804237080836363	4.654003078163637	7.506415303854546
O	-7.927913600836364	8.437595178163637	7.277369823854546
O	-6.344618710836364	-1.6856828018363634	6.444834033854545
O	-5.377172170836364	-6.7053769918363635	7.741711093854546
O	-2.628265960836363	-5.487133891836363	10.077301163854546
O	-0.8409451068363635	-9.981876991836362	9.559459463854546
