97

O	-0.5921771714028572	0.014920114299999954	1.6480742932199997
O	-0.3998266344028572	1.3311818032	1.57932898322
O	0.9051358015971428	1.5789996453	1.0349191032199998
O	1.4027863515971428	0.42039862929999994	1.5031064132199998
O	0.5617208715971428	-0.6237761856999999	1.4775452332199999
O	3.2335473315971432	-0.8956022957	2.41506325322
O	2.4915863615971428	-2.0113106357	2.3028943432199998
O	1.123589931597143	-1.7298953556999999	1.9888415732199998
O	2.648441141597143	0.16957029429999992	1.8338500932199997
O	4.611469781597143	-1.0130242857	2.12546282322
O	5.177430701597143	-2.1820367957	1.5940610232199997
O	0.21530675159714285	2.5005624143	0.19452975321999988
O	-0.5492123304028572	3.3995352143	-0.23808544078000016
O	-1.5707612884028572	3.9663181043	-0.9452730697800001
O	-2.077024858402857	0.10055577430000007	0.6965680032199999
O	-1.8139986784028572	0.9230021583	-0.9381292827800002
O	-1.2533008274028572	1.24319625295	-2.17357325678
O	0.20305739159714287	1.282204098	-2.3931907367800003
O	1.1022398315971427	0.27009847730000003	-1.8544115967800001
O	-0.15139639640285718	-0.16363205569999995	-1.8780887667800001
O	-0.8883656863028572	0.07024547430000005	-0.8012410585800002
O	-2.732348898402857	-1.1729452357	0.7743764332199998
O	-3.114324058402857	0.9691972843	1.30424408322
O	-2.7723182484028572	3.8450532443	-0.6612209407800002
O	-1.4146865454028572	4.3492043343	-2.28694645678
O	2.244088061597143	-0.29954287570000004	-1.3142184217800001
O	2.908247521597143	-1.4017261957	-0.7998490539800002
O	14.216089701597141	-2.2051852457	-4.102195996780001
O	10.691041701597142	-2.0515950757	-5.4936132867800005
O	10.866377201597142	1.7114915413	-5.99303942678
O	12.250440501597142	2.2808546442999997	-2.49261084678
O	9.546138401597142	0.09502549429999996	-0.9076145811800002
O	6.871145751597143	1.8849538333	-3.01662720678
O	8.166487701597141	5.2476621542999995	-1.84155589678
O	7.8006668715971434	4.0364377743	1.77104541322
O	4.556631091597143	3.0295977043	1.03260411322
O	3.3572455815971427	6.3894138343	-0.2583967177800002
O	4.892619981597143	8.1109815643	2.7717307832199998
O	2.9187525315971428	5.8243483143	5.00560096322
O	-0.3533555544028572	6.4398692742999994	3.02445319322
O	0.21064635159714273	10.2108344743	3.18634945322
O	0.5701577715971428	10.0568176643	6.98480632322
O	-2.4975123284028573	7.8234788342999995	7.30970447322
O	-4.565197198402857	10.1037117943	5.07544776322
O	-3.4055606184028573	13.0365506843	7.25483534322
O	-4.507963678402858	11.2313667943	10.43924814322
O	-7.874335848402857	10.261475494299999	8.89891759322
O	-9.708811438402858	7.2599597643	2.9585709532199997
O	-8.587023348402857	4.1876577043	1.1908521532199998
O	-11.471928798402859	2.0714030602999998	2.33681251322
O	-10.520089518402857	3.1560993543	5.87391331322
O	-6.8147933584028575	2.6144686142999998	5.20420375322
O	-7.336544898402857	-0.9693138657	4.06734435322
O	-4.155108348402857	-2.2224548357	7.685593153219999
O	-1.1485441654028572	-7.4063692357	9.79051484322
O	-0.9094092762028572	-13.9695749157	8.00147004322
O	3.3418216915971426	-9.8249165157	7.09577526322
O	2.708277671597143	-6.3630715057	8.475009803219999
O	4.2086608015971425	-3.7497063357	10.68027204322
O	5.790266151597143	-0.7282457457	9.18504134322
O	7.768047101597143	2.3558320943	10.17107614322
O	5.642689531597143	3.1808879743	13.20738414322
O	5.8476194815971425	-0.36029869570000006	14.52355474322
O	9.622235801597142	-0.5911081757000001	14.296032843219999
O	4.164669311597143	-11.2440062157	2.98918430322
O	6.4559019115971426	-8.6090201157	-0.9599551737800002
O	5.288090201597143	-11.4454533157	-3.23002953678
O	9.099887301597143	-8.4159285357	-5.85088225678
O	8.717804821597142	-7.9184119757	-9.60822324678
O	5.337658171597143	-7.0013815957	-11.09878895678
O	3.4664630715971425	-4.7610758957	-10.71838125678
O	4.831661201597143	-4.1080766857	-7.26034810678
O	4.263760321597143	-7.6716595957	-6.05286666678
O	0.5587933215971429	-7.3423405557	-7.04344571678
O	-0.3291743954028572	-4.6717185757	-4.6867694567800005
O	-0.2991961064028572	-6.200896605700001	-1.1689665497800001
O	-1.7751086594028571	-9.6750824157	-1.6056505367800002
O	-5.428018108402857	-8.5035312457	-1.9264871567800002
O	-4.960829118402857	-6.3962490357	1.2107331532199996
O	-3.4803369084028573	-9.2932327157	3.19950890322
O	-8.885736488402857	-8.9043590157	3.06976216322
O	-13.585873598402857	-2.5736389557	0.6664058532199999
O	-15.137151598402857	-0.40804041569999994	-2.03731623678
O	-10.789420758402859	-3.4692995857	-3.13835263678
O	-10.193967898402859	0.27535530529999996	-3.51950640678
O	-11.566438398402857	0.4477605563	-7.0694998167800005
O	-6.275160008402857	-0.6558195357000001	-6.13344719678
O	-6.873896638402857	2.6487850943	-7.93214951678
O	-6.751866138402857	0.7664774203	-11.27630985678
O	-3.357552398402857	-0.6723320357	-10.32395333678
O	-2.1308884184028574	2.7122081742999997	-9.14299553678
O	-2.9990729184028573	4.2138515843	-12.52897115678
O	-1.0528188134028573	1.4516234273	-14.279708856780001
O	1.9937432615971429	2.0296603593	-12.08043155678
O	2.793311791597143	9.9692421743	-6.77994357678
O	3.058521781597143	12.3237224843	-3.83401850678
O	-2.145640098402857	10.9435277543	-3.24070656678
