78

O	-1.4871154553508772	0.37546619529824576	-0.7613923017192987
O	-2.795716428350877	1.4534009932982457	0.5374536412807014
O	-0.13592245035087724	1.1247909572982457	2.733198648280701
O	0.7931225216491227	1.2293948232982457	0.7683301362807013
O	-1.2380448183508772	-0.6038443697017543	2.5736910582807013
O	0.0962604116491228	-0.8613931167017543	0.8736468862807013
O	2.1001961916491227	1.5784495732982458	2.675384098280701
O	0.2439249616491228	-2.2462048067017544	2.5995114082807014
O	1.0401011316491227	1.1600297722982458	3.4333897282807015
O	2.018975211649123	1.4368091532982457	1.3397602612807014
O	-0.7278683683508773	-1.6359704367017542	3.2999651582807017
O	0.8418972616491227	-1.8261031767017544	1.4700238582807013
O	-0.41695223035087725	1.3971776832982457	1.3680202692807013
O	-1.3058980893508774	-0.6261080727017543	1.1703253892807013
O	-1.5821898513508774	0.7528288692982458	0.6416338242807014
O	3.2794465816491223	1.9396125332982457	3.2467363582807014
O	0.7407131516491228	-3.3715146867017545	3.140499688280701
O	1.6892277916491225	-0.10339532870175427	4.518149828280701
O	3.2254597616491227	0.6862583062982457	0.4647796742807013
O	-1.7318349993508773	-2.7816881467017542	4.099028448280701
O	1.0518524816491228	-3.199364046701754	0.3614698794807013
O	8.585426531649123	7.753598333298246	5.470360958280701
O	7.869494501649124	10.337908613298245	2.7008360882807017
O	7.517550041649123	7.541824453298245	0.07530998828070135
O	10.628217821649123	5.316450913298246	-0.012365095719298669
O	10.932273521649122	6.519757933298246	-5.199508471719299
O	8.441178691649123	3.684470803298246	-5.536987891719299
O	-7.331472248350877	0.6209222082982457	-11.033805841719298
O	-8.264568648350878	11.650193913298246	-7.832728091719299
O	-11.337844578350877	-0.6782527297017543	-0.6307108817192986
O	-11.053838578350877	-2.2705720567017544	2.8697806882807013
O	-12.073781678350876	0.9925875772982458	4.5460668382807015
O	-9.613943448350877	2.8733974032982457	2.3410245482807013
O	-6.7872688883508765	0.5673769762982457	3.382237048280701
O	-7.446961018350878	1.5036813232982458	7.046046678280701
O	-6.829343288350877	5.166696353298246	6.628511238280701
O	-3.482885108350877	4.561743043298245	5.071246988280701
O	-2.7637993183508773	1.8185072232982458	7.656761268280701
O	-3.2743819683508772	4.217061783298245	10.575550858280701
O	-1.1748964913508773	6.910083423298246	8.821033868280702
O	1.5934810916491227	4.2746743932982465	8.3902267382807
O	1.2709285716491228	3.295758513298246	12.102176558280702
O	2.0254396716491225	6.987802343298245	12.889776858280703
O	5.067026151649122	6.956818323298245	10.557276958280703
O	3.818772141649123	-2.4011441867017544	13.498628358280701
O	2.0685939516491225	-4.621919196701754	11.021166558280703
O	5.164491711649124	-6.648307136701755	10.230761418280702
O	3.886297011649123	-2.1907444267017544	7.331704398280701
O	4.043154971649123	-5.369286606701754	5.133082048280701
O	7.7476021116491225	-5.1179131467017545	4.7297959082807015
O	7.483756541649123	-1.6104835267017543	3.3686473082807016
O	4.672661231649123	-2.431981886701754	1.2723241242807013
O	6.570127861649123	-4.853110726701754	-0.7531974817192986
O	8.406340601649124	-1.7026347067017542	-1.7110832817192987
O	5.319994221649123	-0.5320213737017543	-3.5999125217192987
O	4.570593421649123	-3.8971870567017546	-5.254727681719299
O	-0.11038656435087724	-4.761638626701755	-8.469296911719297
O	0.5675312716491228	-2.1191320567017544	-5.9186335517192985
O	1.0429212616491228	1.6300778932982458	-5.702956631719299
O	-1.6064387823508772	3.6721938332982456	-3.888608701719299
O	-2.230217128350877	7.260071633298246	-2.700346761719299
O	1.3636177116491228	8.468856983298245	-2.522324271719299
O	2.217958241649123	6.523163143298246	-5.6941446717192985
O	-0.41132285735087726	8.252119643298245	-7.822951461719298
O	-2.485022008350877	5.123654683298247	-8.401666061719299
O	-1.7028052503508773	1.4758008832982457	-9.139655331719299
O	-4.168567448350878	-1.2365821167017543	-8.125514381719299
O	-3.7575749983508775	-4.488363196701755	-9.995465041719298
O	-3.2776610283508774	-7.729804376701754	-8.112931431719298
O	-5.943378308350876	-9.227904576701755	-10.283399441719299
O	-8.572613818350877	-6.617248846701754	-9.344544731719298
O	-7.917436438350878	-7.276586996701754	-5.661216131719299
O	-13.131472778350878	-9.107201356701754	-4.762628621719299
O	-3.774312428350877	-8.933665196701755	-0.40754859671929866
O	1.3444108716491225	-9.994303186701755	0.6864065792807013
O	1.9710860716491228	-10.042442586701755	-3.0574336717192985
O	6.6064004216491234	-9.186125876701755	-1.8024786517192986
O	7.726866871649124	-10.910696786701754	-5.017968571719299
