38

O	-0.56357190454196	26.39852642270519	18.990853066034084
O	-1.3976392883495032	26.464934989915996	19.968087408089755
O	0.7804170759891997	26.794569439796835	19.33309990555682
O	-1.1547451793070609	27.053132585422784	17.883761036341152
O	1.1739555106771409	28.187792932794977	19.054852681366327
O	7.340860936502002	25.348387298473725	17.964211453665
O	2.0956453616703485	28.08337392353893	17.87767538716906
O	1.9124316626256475	26.01744673494341	19.435368648169867
O	3.32309769280186	26.376851014949416	19.313309726188834
O	4.041460537587579	25.183964179571536	19.267474749233813
O	5.3174631815421325	24.79878486466127	18.789358654278885
O	6.124736556880119	25.717947802185353	18.33472696108095
O	5.566633816156689	26.968010825296084	18.590070047008922
O	4.3776524517444235	27.200998339419627	19.334442722866584
O	8.073478822670253	26.09840631566368	17.05307034881752
O	8.426806887224254	25.410272385958063	16.006383797347734
O	8.837416842165453	24.024320155924002	16.19682165651924
O	5.056070767421325	23.585919253697814	18.1290552985117
O	2.9233729207764374	25.215195607154556	15.662527646894278
O	3.997842753510377	25.160569498625737	14.56750596445444
O	4.077288174645365	25.50133260788792	16.615764516058594
O	3.1995854111261135	28.59717758921922	17.274660613044613
O	3.546221243434151	28.506661114299572	15.961192429096792
O	2.5026860630320553	28.410645761610063	15.085280056623223
O	1.3121882442186568	28.185746920117484	15.69804913231991
O	1.4693135968791458	27.435319297746457	16.883853325374567
O	6.66458104633191	22.770807342384206	15.608934275941513
O	6.040498020180107	23.458931890863976	14.613044910502301
O	5.877259212417652	22.490102408210287	13.685736123456058
O	5.1513562612908395	21.451265345195175	14.217515014264167
O	5.414814925079886	20.836471226690993	15.3951916856965
O	6.153722346280686	21.695912896953175	16.152751255441338
O	3.143082701866205	24.569068635420788	16.69736277772053
O	3.072479451984372	23.205218011480916	17.28373621173046
O	5.255124313291184	24.66169563038429	14.694704854739097
O	5.215340877618619	25.589680511262706	15.658018583410591
O	4.083129090501309	22.826802945631933	18.30134640385957
O	3.6895793899625984	22.410457825242034	16.445919166431587
