75

O	-1.47994816203077	-3.055086626861539	3.3247697945230774
O	-0.9860654880307699	-4.327276636861539	3.5143396745230775
O	-0.1423008370307699	-4.784005916861538	2.3608365045230775
O	0.5562441029692302	-6.002482286861539	2.737861354523077
O	0.09714584296923023	-2.7075084468615387	2.0077133745230773
O	-0.5747534320307699	-3.0332215268615386	0.7202449095230772
O	-0.3874376380307698	-4.355256876861539	0.09852058552307719
O	-1.8334751260307698	-2.0064180668615386	2.9010700145230772
O	-2.3800485270307696	-1.7636788468615388	1.4341172845230772
O	-3.07651601703077	-3.1349006568615385	1.571612074523077
O	-11.06776055703077	6.3208509631384615	-10.421505695476924
O	-0.5212587360307699	3.0723122831384613	-9.350971995476923
O	-0.22332213703076986	-0.6766855028615386	-10.093753895476924
O	-4.02361053703077	-1.1733716968615386	-10.326103295476923
O	-4.49655739703077	0.47671354013846134	-6.922122975476922
O	-1.63944590503077	-1.6021702468615386	-5.500559775476923
O	-3.0774336270307696	-4.839688356861538	-6.928052945476923
O	-6.47343020703077	-3.822961706861539	-5.551324215476923
O	-5.231312197030769	-3.303102166861539	-2.1457930354769226
O	-3.99798742703077	-6.976592686861538	-2.1622458754769225
O	-7.3334830770307695	-8.53819700686154	-2.6484466754769227
O	-8.75818353703077	-6.565328696861538	0.33239214552307716
O	-5.63439407703077	-7.4042392968615385	2.3203013545230773
O	-5.99782459703077	-11.13722182686154	1.885566674523077
O	-8.74502751703077	-8.954099336861539	5.944003474523077
O	-6.11169614703077	-11.613156926861539	6.777006024523077
O	-0.5362732900307698	-6.317848656861539	9.365600164523077
O	-4.8662501670307705	-4.430667566861539	9.328656664523077
O	-3.37837598703077	-0.9294360878615386	9.923457394523076
O	-7.84005838703077	0.7233143881384614	8.604625584523076
O	-7.50189601703077	3.8470986831384613	10.790441904523076
O	-11.96663560703077	3.868699923138461	7.883306454523077
O	-9.970389107030769	6.283081443138461	3.2567926545230774
O	-13.151922507030768	4.257644903138461	2.7986367445230775
O	-12.807797307030771	1.4191559931384612	0.2718188935230772
O	-10.181800247030768	7.500528283138461	-1.893421085476923
O	-2.8232345170307696	8.423540753138461	-3.169993655476923
O	-0.03554288703076991	10.911939473138462	-2.4946321454769227
O	-0.15074848703076982	11.834710373138462	-6.235734235476922
O	0.91431528296923	8.32914219313846	-7.328345045476922
O	4.37675037296923	7.929155793138461	-8.844330785476924
O	7.40695969296923	6.774544783138461	-6.8400834954769225
O	7.42944179296923	4.504983573138461	-5.065416995476923
O	3.64271149296923	3.857804313138461	-4.907973075476923
O	2.7307035729692304	7.301834033138461	-3.619722445476923
O	4.63068963296923	6.622518953138461	-0.3709081684769228
O	2.6035604029692303	3.534834573138461	0.6601008575230771
O	-0.4628578670307698	4.967951223138461	2.3563169345230772
O	0.8100206829692302	8.27645979313846	3.794534504523077
O	2.44627304296923	6.790227383138461	6.969337204523077
O	-0.8700003500307698	4.948985703138462	7.628107634523078
O	-2.7969347970307696	8.24784329313846	7.402943354523077
O	-0.22693222703076987	9.93745097313846	9.710407904523077
O	-0.7220897320307699	7.125403303138461	12.247657404523077
O	-4.52748417703077	7.074324613138462	11.801194604523076
O	4.52742341296923	1.3111723831384612	9.970342204523076
O	4.91622904296923	-2.3445743568615387	8.972962044523076
O	8.694587592969231	-1.8362152968615388	8.697072314523076
O	8.23911399296923	1.0206165531384612	6.224927244523077
O	5.68659701296923	-0.9008792308615386	4.1944409745230775
O	7.968344022969229	-3.9447883368615386	3.940593964523077
O	10.97741379296923	-1.9403223368615388	2.7501511445230773
O	8.75820739296923	-0.33384488186153866	0.10149530052307718
O	7.754572692969231	-3.8055292368615388	-1.0616275454769228
O	11.343420392969229	-4.872221346861538	-1.2449044154769229
O	12.00458489296923	-1.8758978868615388	-3.569619225476923
O	9.097717792969231	-2.9698049168615386	-5.780583895476923
O	10.214225592969232	-6.612611506861539	-5.746652705476922
O	12.73272949296923	-2.719868796861539	-9.397540635476924
O	9.01225379296923	-2.9383645568615386	-10.326122895476924
O	3.25013744296923	-7.3953342368615385	-11.176302595476924
O	3.46264743296923	-9.877269166861538	-8.309829015476923
O	2.26739768296923	-10.15129772686154	-4.760190495476922
O	-0.7024989320307699	-12.37743202686154	-3.8492298054769227
O	0.95342083296923	-12.313820826861539	1.138853014523077
