31

O	16.849933099715273	2.727292103485147	36.572092046139026
O	16.641393228479757	2.3876593452938684	34.94907238512539
O	16.545604438538504	1.8638540741500291	37.62363730155972
O	15.676421124870433	3.5050278136225104	36.861567205041105
O	15.19207678817906	1.4224158483788374	35.21628027234976
O	17.1841066861501	1.9089438442883082	33.76290837344847
O	16.219663788634683	3.787278032951563	34.34066031694727
O	16.036622777145922	2.4641110063431064	38.88186791114258
O	15.370229074561514	4.474730087212756	37.910099642981436
O	14.623009463815203	1.9163819356455025	36.35687458468409
O	14.457357242459814	0.9204592112175165	34.24645196321368
O	15.30445248192037	3.6248853365735343	39.17634013716073
O	16.45033688749629	2.0210446443773185	40.17452001482856
O	13.331345729262612	1.909671491166518	36.524248475598135
O	13.105020484663402	1.0389534632519477	34.32981893842448
O	14.276170448470289	3.6447941962856008	40.140978972819866
O	15.393769444796755	1.9770447454574296	41.122728046368636
O	12.65328061178243	2.098934785680088	37.73558672944958
O	12.581040515963826	1.45327771337839	35.5515362186213
O	14.699652594335518	3.142431167828299	41.30929056774081
O	12.996631487596304	2.408561905512225	38.87581034053414
O	11.53735012466899	1.428310487934605	37.798309812556106
O	12.90121257508697	1.2714923030611374	39.830639302455815
O	13.180342274203294	0.08278283582064505	39.248625283348474
O	11.82932658782251	1.7995361115432416	40.485710929868105
O	12.024099582997	-0.734197670449916	39.435767430815226
O	14.067250731255314	-0.1661507185751061	38.0735183767114
O	11.247360819808948	0.7252560595609765	41.21880040721402
O	11.040086743763812	-0.388852124918051	40.396959769818274
O	13.95243796877833	-1.0224722357380251	37.10909117996082
O	15.444606589638614	-0.6864717547147219	37.92049195794148
