45

O	3.8989464560096136	28.404817321897454	16.538743030731137
O	7.582268798428604	27.277832722012178	20.21480765836983
O	5.159763913708007	29.17259732443719	18.96804725038541
O	0.34522268669315714	28.315969795010165	17.68981086443916
O	-1.1445258100098412	26.564046619691496	17.897926077386174
O	6.246360239835598	22.535123247230946	13.002367085011503
O	5.519069872954804	21.658879553820277	13.812192260564816
O	7.511389057103387	22.574490897182404	13.531248378690194
O	5.604140214723023	21.671971237244673	15.190562099291274
O	7.532772188740298	22.448302111475872	14.91254420810141
O	2.9598884185127377	24.579538796392058	17.568788905613516
O	3.3847371360671836	26.33160568425548	17.087749643829905
O	4.085767337577655	24.124301573458652	16.71882925841166
O	4.208980656749869	25.597785559833323	16.18640049065478
O	4.2720996849064194	25.690574812502824	20.975859821489454
O	2.729632283233448	26.792665269357283	20.26479353037327
O	4.687204985589774	27.365343561982034	19.793194020375818
O	6.149409130039059	25.82872027845119	16.222847123010794
O	5.520346650318403	28.273219082081408	16.72705825293978
O	6.735859522505242	22.986044149737438	17.27821663594102
O	6.968515014933173	25.170361090879258	14.830755416268321
O	3.6398323438472238	24.356103137694262	19.576069869247416
O	-0.4067381475228231	27.090979845557786	20.830461829699765
O	5.715803533571869	24.047625280627024	20.14785333945848
O	7.9471604716499575	25.23929103871028	18.11658039431966
O	-1.4196957906189267	28.39691628791417	19.624009109402927
O	-0.24487169807769682	27.578501031955444	19.71208007675784
O	5.058727774581001	24.167175779495775	19.09916447363712
O	6.780899706957069	25.176089657639032	18.298078857117183
O	6.441989050447296	22.548965179275108	15.82042732421552
O	3.1731156688181152	25.49034060313092	20.344635246523232
O	2.257127953127948	25.80937752615885	17.353459297757933
O	5.179243658578795	26.673081609417437	20.82908082326541
O	3.4195655045419864	27.863347428806847	19.827199471179114
O	4.52656661456329	24.50858459520917	15.55593525790235
O	5.72011840623977	25.093215784585784	15.230838852516488
O	7.417475972226873	26.405206397725394	16.336362516967636
O	6.576620577791755	27.369372508101343	17.183609270083707
O	0.19349063998776472	26.995150077252696	18.452140369738444
O	6.09090558807189	24.070563837132017	18.157888481284747
O	6.559105787153349	26.654906005097736	20.837981352707473
O	3.6791935545325933	28.97644245371461	19.09106615239216
O	6.33680343640825	26.378633831616476	18.167391784313665
O	1.2636478213012614	26.279726920107993	18.170419799923497
O	7.873002513239985	25.425402595969757	15.66390178045919
