18

O	1.5582664662704793	25.977462237364836	19.797398230387813
O	1.2535189302200174	26.922695340190323	20.776412821087717
O	0.884251687955655	26.038616835860914	18.776988773087492
O	1.0311455946041037	28.233977806747408	20.131818330902085
O	3.792110520546281	23.03828587766301	21.91241802657442
O	2.7482257194718303	23.232693124318523	22.824899244271084
O	2.252100644110147	28.643430158993663	19.542728219858795
O	4.799180374921274	22.681499781046362	22.443384861077824
O	2.4296564372212317	28.695413082625606	18.15676821391097
O	1.3131936941143885	28.943075179011572	17.468837944055753
O	0.10499726744940752	28.694655977463615	17.99694496629381
O	0.013993867848664188	28.1463546359284	19.2379093916983
O	2.898378448641945	25.455527795955554	19.628619109324447
O	4.090735067209668	26.11910602441613	19.313410198740268
O	5.300089985968832	25.454988806918486	19.60527847136743
O	5.1778763493252775	24.19832574709507	20.16821595699352
O	4.075924248259248	23.981109206839026	20.897440974661396
O	3.1206728776726504	24.95220292451406	20.87610393342125
