99

O	1.4862083249651514	4.7808428396409095	0.7082108393075761
O	3.9191512849651513	-4.883054310359091	-1.171782506692424
O	1.1666286149651515	-4.896919820359091	0.8690497093075762
O	3.6813329549651512	3.640450349640909	-3.486313270692424
O	2.9009191249651516	3.5185922496409088	-4.653579040692424
O	0.1599022089651515	-1.3866514703590909	1.293434589307576
O	1.8605255349651515	-0.8895735203590911	2.7617186593075758
O	0.7262990429651516	-2.627132080359091	1.1939171893075762
O	2.6702290049651514	-1.751271150359091	2.073217389307576
O	2.8317969849651514	3.919860059640909	-2.367637470692424
O	1.8053479549651514	2.7336558596409093	-4.533997350692424
O	1.9422980049651515	3.457919869640909	1.1056015493075761
O	3.1955328549651516	-5.584726490359092	-0.07173533069242388
O	2.8172442149651515	2.521963719640909	0.49519797930757603
O	3.0091102249651516	1.420100115640909	-0.3300471456924239
O	2.7587082549651516	0.11175582964090902	-0.6099592483124239
O	2.1864044749651517	-0.7237072503590911	-1.655477380692424
O	0.5001920709651516	0.938612773640909	1.6448036893075761
O	0.7085712809651515	-0.8382567303590911	-1.424926144692424
O	-0.011467161534848481	0.9810931299409089	0.3045732823075762
O	2.9694520949651513	-4.67527550035909	2.271956969307576
O	0.4792026129651515	2.968087449640909	-1.6173285706924239
O	2.1434514549651515	-4.129678550359092	3.015739749307576
O	4.108382524965152	-4.023375650359091	2.551259439307576
O	2.7227554749651515	-3.3334192403590914	0.25589929930757616
O	0.6302830759651515	1.515825961640909	-2.9745872706924237
O	0.8397387769651515	-0.402404870359091	2.0250217993075763
O	2.0818907849651516	-2.527101650359091	1.1468887493075761
O	0.5304594629651516	1.599022354640909	-1.6961187106924238
O	1.4896149249651514	3.489080459640909	-2.390061110692424
O	1.6931623749651514	2.335998459640909	-3.167430030692424
O	2.6622258349651515	-4.566512530359091	0.8708738093075761
O	0.4285283869651515	0.44460605864090896	-0.8588049626924239
O	-1.3147111050348486	11.076519839640909	8.151716799307575
O	-2.4269279850348484	12.758538339640909	3.025458409307576
O	-6.107999925034848	12.29610273964091	4.032560619307576
O	-8.95893711503485	10.730415949640909	2.0491989093075764
O	7.870680644965152	-1.237747310359091	-8.524962280692424
O	7.932064894965152	-3.867908990359091	-5.737772450692424
O	11.079119704965152	-2.259565460359091	-4.2187354606924234
O	9.50334166496515	1.117689325340909	-4.439264860692424
O	6.394330474965152	-0.08429515035909096	-2.6049779106924236
O	8.645156964965151	-0.931464370359091	0.2983965483075761
O	10.00662980496515	2.4897527396409087	0.9944213893075762
O	6.536424774965152	3.791149199640909	1.2242641393075762
O	5.387267154965152	0.939678502640909	3.297669419307576
O	7.909138154965152	1.591047440640909	5.946613669307576
O	6.964123584965152	5.28842364964091	5.926091519307576
O	3.2876130749651513	4.241496259640909	6.387059839307576
O	4.228398444965152	1.844670105640909	9.235878279307576
O	5.861165924965152	4.840167709640909	11.015304009307576
O	2.7042312949651515	6.924097789640909	10.497155109307576
O	0.3924371409651515	4.173396779640909	11.797909509307576
O	2.5837316949651514	3.592497549640909	14.853199509307576
O	-0.8162764470348485	-7.9856027503590905	12.950140209307575
O	-0.3486683340348485	-2.508034950359091	10.489728709307576
O	-0.9993790410348484	-3.906310350359091	7.001335869307576
O	-4.745579435034848	-4.142032450359091	7.547159489307576
O	-4.512949125034848	-0.377462790359091	8.200082199307577
O	-2.2444666650348486	0.28217745764090896	5.304155359307576
O	-4.744739545034848	-1.3764260103590908	2.8082803293075758
O	-7.670061335034848	0.432126439640909	4.474825999307576
O	-5.946036635034848	3.784100479640909	3.843088899307576
O	-4.7228819850348485	2.865750529640909	0.4575843093075762
O	-8.300422305034848	2.428247369640909	-0.6556603990924239
O	-8.58225140503485	6.2256444196409095	0.0605936003075761
O	-6.036070445034848	6.780376329640909	-2.749832490692424
O	-7.687650715034848	4.303107149640908	-5.192337290692424
O	-3.8580691650348484	4.484610639640909	-7.358724760692424
O	-2.2801269750348485	7.760041649640909	-6.241370700692424
O	1.3656629849651514	7.771204059640908	-5.5799131006924245
O	4.202989354965152	9.94210538964091	-4.0952854506924234
O	1.9949576749651516	12.03915283964091	-1.8854073606924238
O	-0.6771988340348485	12.27047783964091	-4.604478160692424
O	1.6144680449651514	13.62074223964091	-7.366350770692424
O	1.4231822149651514	10.470995889640909	-9.526447490692425
O	-0.5345746040348485	4.437467209640909	-11.513611590692424
O	-0.04479687473484848	-3.087489420359091	-12.456602790692424
O	-2.0980993250348487	-5.970696930359091	-13.794679690692425
O	4.060602214965152	-9.41204176035909	-9.326015970692424
O	0.9736898249651517	-8.60564181035909	-11.408132890692425
O	-0.24337145903484847	-8.11568338035909	-5.962913000692424
O	-2.4707453450348487	-5.099252610359091	-6.263366030692424
O	-5.618088205034848	-6.41643062035909	-7.916285840692424
O	-6.6217522050348485	-4.338836610359092	-3.0627546706924242
O	-8.41602061503485	-2.619669310359091	-5.942382840692424
O	-11.25313839503485	-5.155737860359091	-5.646485940692424
O	-11.549998795034849	-4.367370890359091	-1.9203592906924238
O	-11.093950695034849	-0.6098858603590911	-2.404965540692424
O	-9.036300465034849	-7.03550774035909	5.399800749307576
O	-6.311831505034848	-9.357362760359091	1.7552563193075763
O	-3.2922837950348485	-9.60596086035909	4.092338029307576
O	-0.5328420200348485	-10.94134216035909	-0.031885596692423857
O	1.6935941549651514	-12.849216260359091	2.489923649307576
O	5.610476604965152	-12.89588616035909	-0.6410500195924238
O	8.89365313496515	-14.42270276035909	-4.044875670692424
O	11.10414330496515	-15.425363560359092	-1.0995410816924238
O	12.68933050496515	-7.186045430359091	1.6985285893075763
O	9.186593404965151	-5.3989965103590905	6.9117094093075755
