103

O	-6.484608160601538	3.337502896804615	-0.5587241064430772
O	2.2182089193984615	3.5062348568046153	0.3872644358569227
O	4.429739559398461	1.3810871168046153	3.267304334856923
O	-1.1373254978015384	-0.18930141319538474	1.1311125848569228
O	-0.7519819796015383	0.04141862680461528	2.4586254248569226
O	-3.5594612506015384	1.8454858717046154	1.0046128948569226
O	-3.968456790601538	3.8180155168046155	0.1275283868569227
O	-0.6516905676015383	0.6214778968046153	0.08475817285692266
O	0.19999736939846158	1.0497575368046155	2.5773258748569225
O	-2.6995311606015386	2.4608631828046152	2.042523384856923
O	-2.744338470601538	4.2331290068046155	0.6866667148569228
O	-2.6443535606015383	3.8239896568046152	-2.7396538551430774
O	-1.6612628766015383	4.469588886804615	-1.9709071851430773
O	-1.5697478226015384	1.8395993464046154	-2.4261377951430774
O	1.4085251293984618	1.0234318218046154	-0.8290607001430773
O	2.2652394693984617	2.2853590198046154	3.9056238948569226
O	-0.6399953106015384	3.7373007968046155	1.2039217448569226
O	2.768103979398462	3.355681466804615	3.557778184856923
O	0.1941441493984617	3.9784310868046155	2.079212304856923
O	1.5799779093984618	2.3229885448046153	5.084593994856922
O	-5.807612720601538	2.392059907804615	0.2841769688569227
O	2.5201275093984616	1.0058005408046153	1.9799266248569225
O	-4.154992030601538	2.059500014804615	-2.1589856051430774
O	0.9277661893984614	3.0418761568046153	-0.2527645041430773
O	-4.593245170601538	2.7630021238046156	0.8003658448569226
O	-2.8394551206015386	2.467769606804615	-2.4260090151430775
O	-1.9960316696015383	3.259535296804615	1.2892635448569227
O	0.6623685793984617	0.8038963998046154	0.39192441485692275
O	1.1929818493984619	1.0419781838046154	1.6167906348569225
O	0.8354770193984615	2.2656989078046155	-1.3594699581430771
O	-0.43307794060153837	2.4084147178046154	-1.8310192951430773
O	-0.7469319066015383	3.6984467668046155	-1.3433238621430772
O	2.925759259398462	1.1228711678046155	3.309484924856923
O	-5.178533160601539	1.5854161748046154	-2.976787045143077
O	-0.17940918060153832	3.7255868068046154	-0.1527375291430773
O	-6.162266430601538	0.8347123658046154	-2.2835900751430773
O	-4.8988933006015385	0.7567741368046155	-4.010825405143077
O	-6.121901290601539	2.4913047238046153	-3.4726014851430773
O	-12.929592940601538	1.7146117725046153	-0.6564200163430773
O	-10.581394620601538	0.8524496638046154	-5.711935385143077
O	-11.523642140601538	-2.7981704131953844	-5.056017405143077
O	-9.629875150601539	-6.084803083195385	-5.759706565143077
O	-11.156970150601538	-3.5282533431953844	-10.339604695143077
O	-7.439949540601538	-3.926614053195385	-9.559924195143077
O	8.756649899398461	7.765951626804616	-3.1898529151430774
O	8.688434439398462	7.442932326804615	0.6443320248569226
O	7.086669129398462	10.917545146804617	0.9817790448569228
O	4.564578439398462	9.972443256804617	-1.7543305051430773
O	3.6596867193984615	6.881122096804615	0.06622030885692276
O	2.6806942893984615	8.957861836804614	3.1801035148569228
O	0.03468417939846158	11.113299066804615	1.5657624348569228
O	-1.5879951746015384	8.192358826804615	0.35115123685692273
O	-1.1842636325015383	6.391484986804615	3.8951150848569225
O	-3.1214689706015384	8.898998516804616	5.588370414856923
O	-5.919072210601539	8.953897786804616	2.999261834856923
O	-6.242959320601538	5.113542216804616	3.5933173648569228
O	-6.2392853706015385	5.440418616804616	7.273481944856922
O	-9.350121230601538	7.706885676804616	6.763426004856923
O	-11.093650870601538	5.053611636804615	4.554686204856923
O	-10.300919170601539	2.189622571804615	6.957406854856922
O	-11.661531640601538	4.244449246804615	9.837458494856921
O	-2.753950290601538	-1.2957714931953848	15.960684594856923
O	-5.035670780601539	-2.4371007131953846	13.175197794856922
O	-4.766034430601538	0.16831794680461543	10.471372194856922
O	-1.4943992026015382	-0.8250252031953846	8.865220394856923
O	-2.3058367506015385	-4.510055613195385	8.999129374856922
O	-5.410574500601538	-3.6089785431953842	6.920147284856922
O	-3.6256870406015382	-1.4228761031953847	4.7021241248569225
O	-1.0309715266015385	-4.203264043195385	3.7629196248569223
O	-3.847113210601538	-6.687786553195385	3.3727484848569227
O	-5.541168370601539	-4.606947613195385	0.8241188448569228
O	-2.2571226606015387	-3.9721356631953846	-0.8942940881430773
O	-1.8354823366015385	-7.230484183195384	-1.8540737151430773
O	-5.030054810601538	-6.724106443195384	-4.003570945143077
O	-3.0122182106015383	-4.186735063195385	-6.110217585143078
O	0.17591256939846156	-6.281955883195384	-6.294166835143077
O	2.1546970293984615	-2.5430277531953847	-7.511440835143077
O	-0.6082371016015383	-0.3338919531953848	-8.862816425143079
O	-0.3114997906015383	3.3535331368046153	-7.743043085143077
O	-2.3536842106015383	6.6383662268046155	-8.123952365143078
O	-5.809041600601538	4.970746216804615	-8.319789515143077
O	-4.498421330601538	2.2478751698046153	-10.687113205143078
O	-3.1188342206015385	4.682169006804616	-13.192488305143078
O	0.5464147293984616	3.7705975168046155	-12.582980705143077
O	5.660751849398461	0.5805016268046155	-10.029738545143077
O	9.064104559398462	-4.502432203195385	-7.670415495143077
O	12.580483759398462	-0.4934995431953846	-9.191770725143078
O	11.637116259398463	-0.42797167319538465	-5.534654865143077
O	14.251786459398462	-3.0176191031953845	-4.709222865143078
O	14.373625659398462	2.5592941938046154	1.4831474148569228
O	14.87324915939846	-0.4019312531953845	-0.8600799511430772
O	10.454866359398462	-1.2585692131953845	2.596377664856923
O	8.308214479398462	-2.952932143195385	-0.03596182514307733
O	9.905196559398462	-6.356454823195384	-0.5990935696430773
O	4.9242882793984615	-6.830781803195385	1.3299750348569228
O	5.4427830793984615	-8.384994463195383	-2.1444946551430775
O	6.5332879893984614	-11.580376263195383	-0.4296766381430773
O	3.3431070093984614	-11.587471263195386	1.6773642748569229
O	1.1284651593984618	-10.479891463195386	-1.2501626491430773
O	0.5776669593984616	-9.281375163195385	9.033496604856921
O	4.121117939398462	-4.122811313195385	10.405318594856922
O	8.13540650939846	-1.6554383131953845	8.638518804856922
O	10.944755059398462	3.767645796804615	10.193277194856922
