100

O	1.824141633	0.5251260373389826	3.1048363290271186
O	1.4575160030000003	-0.7500867426610176	3.1071549990271183
O	0.998875713	-1.2270046126610175	1.8505453590271186
O	0.766133573	-0.2350119726610176	0.8290279590271185
O	1.910004243	0.39225953733898256	0.8530108990271185
O	2.5387629730000003	0.7186212973389825	2.0546081090271184
O	0.252705313	0.0037335673389824464	-0.35231939167288157
O	1.323316223	0.23102720733898252	-1.0117890149728814
O	2.476722353	0.5520547673389826	-0.36699279269288154
O	3.9297955829999998	0.18148964733898265	-0.2724297549728816
O	1.335550623	-0.002677562661017596	-2.3811130809728813
O	-0.9267768192	-0.6380602926610175	-0.8155913499728815
O	-1.533203473	-0.8209422126610173	0.5135376860271185
O	1.1339214930000003	1.4095173293389824	3.9626490090271185
O	1.9520624830000002	2.2671198593389823	4.148208039027119
O	0.05565655300000005	1.8698246983389826	3.2462948590271186
O	-1.14151858	2.4790223803389826	3.3093113090271187
O	-1.872292122	2.874350204338983	2.1120838990271187
O	-1.905006631	1.2567601513389826	3.887585019027118
O	-1.0437237354	-0.4004858626610175	1.7447749690271186
O	-0.8242005499999999	0.9739914173389825	1.4343827190271186
O	-1.6529100190000001	1.3976732453389826	0.45332386402711844
O	-2.793056987	0.8303279273389825	0.8255171390271184
O	-2.450443397	-0.3359652926610175	1.3513990790271184
O	-1.171977522	2.1580090893389827	-0.6038426159728816
O	-2.169190527	2.1089541083389824	-1.5746030809728815
O	-2.066966427	3.0928365873389825	-2.4893237809728817
O	-0.749942798	3.3839823873389827	-2.6959861209728815
O	-0.337127521	2.5786298783389823	-1.7100531309728817
O	0.04831277300000003	2.8519302313389825	-0.31248249757288155
O	-1.846937736	3.9810196673389826	1.3798167190271187
O	-2.700857767	4.623341427338982	0.44682960002711847
O	-3.8154187069999996	3.9598129673389826	0.11065501802711847
O	-4.154648657	3.1981487773389823	1.1606116990271182
O	-3.180911327	2.6693051303389828	2.0869688590271185
O	-4.645481947	4.567543747338982	-0.8392450569728815
O	-4.983999527	5.890431067338982	-0.5281157649728816
O	-4.8082230070000005	4.370541697338982	-2.0399563609728815
O	0.9242411330000001	3.0119905473389825	0.8103306290271185
O	1.2162425730000002	3.6114613173389825	1.8355550990271188
O	2.2465848530000003	3.052548557338983	1.3596191590271185
O	-11.804346117	-4.056398172661018	7.085733779027119
O	-10.095041027	8.420146557338983	-8.439003500972882
O	-7.880305557	10.968053577338981	-6.604537670972881
O	5.108561023	8.021892797338982	-8.262377130972881
O	5.682026113	10.425100327338981	-5.311874380972881
O	1.9556112030000001	11.115130027338981	-4.7154117709728816
O	1.3816621430000002	7.541768247338982	-4.596992830972882
O	4.400735743	7.034100577338982	-2.1247955009728816
O	3.1340850830000004	9.792040107338982	0.11536034202711842
O	-0.349671375	8.493707557338983	0.07784027402711846
O	1.0861871930000002	5.129927347338983	1.4027510790271185
O	2.2455617030000004	6.7013479473389825	4.419014369027119
O	-0.785886522	8.264340797338983	5.871435569027119
O	-2.496147857	4.852190477338983	5.9012655290271185
O	0.568952003	3.2284298073389825	7.3246200890271185
O	0.4380712430000001	5.318478827338982	10.26566376902712
O	-3.3296606069999997	4.574452517338983	10.629997869027118
O	-2.6096887669999997	0.7624535473389826	10.437160069027119
O	0.2512581130000001	1.1702264643389826	12.960822369027118
O	-2.423329977	2.5938443983389825	15.32408316902712
O	-4.762820367	-0.3807217626610173	14.623688569027118
O	4.517341203	-3.5505615926610177	12.836960269027118
O	5.416156183	-3.7623502826610173	9.177053569027118
O	0.8845772530000001	-4.648674152661018	7.915756169027119
O	2.130940673	-6.873458142661018	4.972696219027118
O	-2.983796397	-7.992947732661017	6.361084089027119
O	-2.3709478969999997	-6.282396412661019	3.1043295290271185
O	-2.295612817	-9.707274592661017	1.4126556290271184
O	-5.977826747	-9.905105292661018	2.5113944490271187
O	-6.625342667	-6.896674742661018	0.1738601000271185
O	-4.579820977	-8.283572892661018	-2.7550164309728813
O	-4.742787707	-4.161952762661018	-4.341021590972882
O	-7.632954677	-2.574506172661018	-2.5692362709728815
O	-7.160742007	0.8724817173389825	-1.3747505449728816
O	-9.428161317	3.4933816773389825	0.5955041370271185
O	-11.379451217	1.0281113953389824	2.7369082490271186
O	-11.902983917	-1.1275127226610175	-0.31739214757288153
O	-13.321817617	1.6442138683389826	-2.5128485909728813
O	-10.467454087	1.6505736873389827	-4.981517250972882
O	-5.0003345669999995	-0.3280964826610173	-7.913105000972881
O	-0.02256022099999999	0.28839154733898265	-12.868419230972881
O	2.196050093	0.07776451733898249	-9.791048720972881
O	4.811786853	-1.8944504426610176	-11.803996130972882
O	4.705685713	0.9432267573389825	-14.431275630972882
O	5.999711093	3.5710116873389826	-11.945149430972881
O	9.084525083	3.456764967338983	-7.003960160972881
O	7.857622243	0.7193099273389825	-9.362194630972882
O	8.119235343	-1.3211297026610174	-4.051402200972881
O	4.862808123	-3.4096805626610176	-4.340726170972881
O	5.790200973	-6.287869532661018	-6.538315140972881
O	4.316302333	-7.952896002661017	-1.5959769109728814
O	2.104991273	-9.199231992661018	-4.452223040972881
O	4.5142826330000005	-12.128841292661019	-4.8604017809728814
O	4.168238823	-12.870594592661018	-1.1107778689728816
O	0.3936310930000001	-12.286266892661018	-1.0830033019728815
O	10.546164583	-5.690378002661017	5.273765529027118
O	11.338566183	-2.3240004326610175	1.5797820390271187
O	13.652097283	3.6037675073389828	1.4619767790271183
O	8.765866413	10.140912197338983	5.505587369027118
