88

O	-0.9542643020937502	-0.9499841529375002	0.059268390812499905
O	-1.4798474640937502	-4.232565212937501	1.5110747508125
O	-0.08240859209375029	-0.26405813293750013	-0.7583997621875
O	-2.91086550209375	-2.6687480429375006	1.7556396308125
O	-2.0949636560937503	-1.0827951529375002	-0.8287739501875
O	-0.8762421800937503	0.7990846140624999	-0.9733884581975001
O	-2.0123229950937502	0.31523645906249986	-0.47416191518750006
O	-0.6965494790937502	-1.9072990229375002	1.1151625908125
O	1.19689894790625	-0.10857661193750012	-1.0899566381875
O	-0.07817237209375016	1.9639653470624998	-1.0485319652875
O	-3.4182448220937505	0.6717848966624999	-0.7367116931875001
O	-3.29100005209375	-1.9023297529375	-1.1066148651875
O	1.82747532790625	0.8245089950624999	-1.8061422961875
O	1.2017329079062495	2.0035701370625	-1.6644559111875
O	-3.2646323420937504	0.4770373750624998	-2.2905980691875
O	-1.6346944590937502	-2.9728773829375	1.3946182108125003
O	-2.3568772020937505	-0.47408351293750006	-2.7896602791875003
O	-2.5274496020937502	1.6162438570624997	-2.1320688291875
O	-1.1777495466937502	-0.0898695179375002	-3.4193391291874997
O	-1.5415560540937503	1.9597871270624998	-2.9965445091875
O	-1.0479186300937502	1.2149441890625	-3.9662087991875
O	-3.0622106120937502	2.1147820070625	-5.9083173991875
O	3.15554076790625	0.8214203850624998	-1.9183251491875
O	-1.2497769035937503	1.9994004670624999	-5.5433720791875
O	4.53894920790625	8.8736443670625	-13.705301679187501
O	7.88444198790625	2.3110084370625	-5.4395467691875
O	7.54347596790625	-1.3681117829375002	-6.4293067391875
O	5.78646729790625	-0.6295658329375002	-9.745220949187502
O	3.3214942479062497	1.4708351510625	-7.8183871491875
O	2.95899674790625	-1.3546165929375003	-5.2240252491875
O	2.3215787879062497	-3.9080928329375	-7.8556401791875
O	-0.1473636420937503	-1.7959521329375001	-9.6182072691875
O	-2.1934724620937502	-1.4610380229375	-6.3404373091875
O	-2.6781653420937506	-4.911991552937501	-6.0300247391875
O	-4.48525052209375	-5.355980272937501	-9.3148019191875
O	-7.060620362093751	-2.7023463929375	-8.3629724591875
O	-7.18710857209375	-4.0899837029375	-4.8087656991875
O	-8.19278275209375	-7.5019138329375	-6.1073727191875
O	-12.179194252093751	-4.0153616029375	-5.5615896791875
O	-12.30816865209375	-7.2722091129375	-3.5305919291875
O	-9.82748310209375	-3.9718452529375003	3.2708408308125003
O	-11.60753555209375	-0.7391127129375001	0.36124798081249987
O	-10.21112386209375	2.0482253570625	2.6079119908125
O	-10.95131975209375	4.907144487062499	-1.2230475451875
O	-11.67351145209375	7.967039197062499	0.9941238508125
O	-11.652926852093751	9.1646726170625	-4.2003175291875
O	-7.99444640209375	9.318266107062499	-8.0086963291875
O	-6.67938580209375	6.227940587062499	-9.8639770291875
O	3.42263290790625	8.8549962270625	-2.4999479591875002
O	5.03020786790625	10.3061532870625	0.5913345708124998
O	8.26731848790625	10.708051197062499	-1.4619712681875001
O	8.60695861790625	6.9389000770625	-2.0215186891875
O	11.44477024790625	5.1506380070625	-0.2735651921875001
O	11.05218184790625	3.3163989270625	3.0435290508125004
O	8.93847334790625	1.4401595880625	3.5961539508125
O	6.701484777906249	2.1899796670624996	0.5834566808125
O	6.24951404790625	5.8741715870624995	1.3336647208125
O	4.41795895790625	5.0345841670625	4.5942673208125
O	1.6334576079062497	3.0159105070624994	3.1151761908125
O	-0.8964782830937503	5.5483061670625	1.7651529708125002
O	-0.4128737520937502	8.4112356770625	4.2750094408125
O	-2.57703906209375	6.874842147062499	7.0967895108125
O	-5.37044797209375	6.4587212770625	4.5424367708125
O	-5.14909539209375	10.1127496970625	3.5551296008125
O	-5.18463412209375	11.1032926970625	7.2652710008125
O	-8.32840834209375	8.9784760270625	7.7944644408125
O	-9.95869690209375	10.1416226370625	4.5480638608125
O	-5.63362181209375	1.4639742000624998	9.377569120812499
O	-5.74869598209375	-2.1988453129375003	8.2673504208125
O	-3.4402750420937505	-3.0922879529375003	11.1615338208125
O	-0.8103737880937503	-0.5886116429375001	10.0357312208125
O	-1.0725783630937502	-1.7158502629375	6.4150688508125
O	-0.6655817950937503	-5.379401552937501	7.370470350812501
O	2.4296746979062496	-4.701290822937501	9.3904213208125
O	3.9388503079062493	-2.7959670429375	6.5220120508125
O	3.26385517790625	-5.802852422937501	4.2760917508125
O	4.87836805790625	-8.0312112829375	6.6914135908125
O	8.03849488790625	-5.8345531929375	6.6238971208125
O	8.03376982790625	-6.1310294029375	2.8311574108125
O	7.47886710790625	-9.888676902937501	2.9670859008125
O	10.48346224790625	-10.1484803029375	5.3401690608125
O	12.87429214790625	-7.6596799129375	3.7316261108125
O	11.69707184790625	-6.6984658329375	0.2076803908124999
O	8.06948742790625	-8.9110844829375	-5.7608535491875
O	5.15929119790625	-11.001098102937501	-4.4898454991875
O	1.6031126079062497	-10.330532802937501	-3.4271304791875
O	-1.3339613170937503	-11.2871365029375	-5.6591052391875
O	-4.45633924209375	-10.9367627029375	-1.3611344831875
