95

O	-2.1141258508054057	1.0767674932216218	0.17043179240675646
O	0.0498570541945943	-0.7037868974783781	-2.5911473765932436
O	0.32137986919459427	1.201802878521622	-1.0534504885932434
O	1.2270421091945942	0.5073759405216218	-3.7381374365932434
O	-0.9654835198054057	0.9742416601216218	-0.6999590655932436
O	-0.6515896888054058	-0.9768517974783784	2.5069339234067565
O	-0.8496428705054058	-0.4328139074783781	-0.11390374229324354
O	0.45189787919459434	-2.244946817478378	4.991532393406756
O	0.5884463391945943	-0.29377982747837805	0.014029994406756452
O	0.9994900991945942	-1.152749137478378	0.8394056554067564
O	0.6194380291945943	-2.397771057478378	0.4345613734067564
O	-0.008222659805405708	-2.5340316974783783	-0.8525474145932436
O	-0.43662762780540576	-1.2528407674783781	-1.3493772065932437
O	0.4367497991945942	0.7026224105216219	-2.4264035365932437
O	0.43359148919459434	-0.31416902747837816	1.9219928834067566
O	0.4318453791945943	1.049750104121622	2.2751501134067564
O	-0.8044166250054058	0.9127039725216218	2.9447934334067565
O	-0.5580098788054058	-0.3353659474783781	3.6364133034067563
O	-1.469587571805406	-2.1183258874783784	2.0522267334067563
O	-0.2021447878054058	-1.3378201274783783	4.615646103406757
O	-0.7937815994054057	2.2099117725216217	0.16312420940675645
O	7.814760939194594	-8.26528906747838	7.420640513406757
O	8.025835669194594	-6.3215281974783775	4.145264003406757
O	10.454051599194594	5.761223932521622	-4.652514206593244
O	10.402422999194595	2.652216032521622	-6.853046646593244
O	9.926896799194594	1.8184542835216218	-1.4478471465932437
O	6.838366169194595	1.120799523921622	-3.5646469265932437
O	8.239725529194594	-2.322540157478378	-4.555779236593244
O	8.754695899194594	-3.1149831874783778	-0.8405798195932436
O	5.227289579194594	-1.9507616274783781	-0.059058806693243544
O	3.9900131291945944	-4.209152587478378	-2.9248431765932437
O	5.925142959194595	-7.063435497478379	-1.4049473465932436
O	4.310950329194594	-6.350233717478378	1.9679461234067563
O	0.9237972291945943	-6.188219357478378	0.19961027840675646
O	1.4189242791945942	-9.618049637478379	-1.2835056765932435
O	2.155847459194594	-11.04717583747838	2.1765618134067566
O	-0.7128356478054058	-9.086615637478378	3.7619721234067565
O	-3.121243050805406	-10.50452993747838	1.1468386534067565
O	-11.469822300805406	-10.537456237478379	0.3381473294067565
O	-10.735250300805406	-8.739549347478379	-2.9450944365932434
O	-13.175498000805405	-5.872329857478379	-2.2229438965932435
O	-11.682730600805405	-5.327884477478378	1.2494615234067565
O	-7.966801690805405	-5.939974527478379	0.4875918484067564
O	-6.931914980805406	-2.299941217478378	0.5938472094067564
O	-9.261274740805405	-1.3487853874783782	3.4636527834067565
O	-7.954942940805405	-4.1582346674783786	5.688474643406757
O	-4.278278510805405	-3.221734327478378	4.920679303406756
O	-4.688516260805406	0.4055469125216219	5.778204143406756
O	-6.867527700805406	-0.43501113747837805	8.903541243406757
O	-4.1020266508054055	-2.791274257478378	10.072126803406757
O	-1.5471314998054058	-0.05551138747837814	9.357469243406758
O	-3.668656200805406	2.136351212521622	11.664043303406757
O	-3.518655940805406	-0.3802442574783782	14.491930203406758
O	0.22047484919459415	-1.0533243674783783	14.311158403406758
O	3.3932584491945943	4.746567982521622	9.670514033406757
O	4.298637689194595	1.285835462521622	11.007358703406757
O	3.8535046691945944	-0.7337039574783781	7.830759963406757
O	6.031576899194595	-3.5016055174783784	9.106133463406758
O	8.836123649194594	-3.8798037174783784	11.702090803406758
O	9.338050099194595	-0.630416547478378	7.129774093406756
O	8.395521399194594	2.3020514525216216	9.401127643406758
O	7.838162869194594	5.639387662521623	7.601720143406756
O	10.898768099194594	9.160400502521622	4.085251073406757
O	7.952447639194595	10.674211962521621	2.1651318334067566
O	2.7425267191945943	9.67789016252162	-2.3906103865932438
O	3.3105864491945938	11.823643762521622	0.7112948884067565
O	-0.19326967580540577	13.131608062521622	0.23364909540675646
O	-1.6988288198054058	9.632806312521621	0.34930864940675643
O	0.5096747091945942	8.775596672521623	3.3536477534067566
O	-0.9781507188054057	11.784514862521622	5.127220103406756
O	-4.549240990805406	10.592139932521622	4.440312623406756
O	-3.680213100805406	7.018854562521621	5.560474013406757
O	-6.624559550805405	6.403296172521621	10.809492103406757
O	-9.737979010805406	3.909147512521622	0.3955222094067564
O	-8.173512330805407	7.623603982521622	-3.1785398365932434
O	-5.896012070805406	4.708202292521622	-2.2788697265932436
O	-7.568626530805405	2.4435747725216217	-4.910942556593244
O	-7.125493930805406	5.159322952521622	-7.588187736593244
O	-3.435716400805406	5.787821652521622	-6.813003016593243
O	-2.8891616508054057	1.991769016521622	-6.812161576593244
O	-4.512579990805405	1.352070574521622	-10.181367296593242
O	-2.6251125708054057	4.315148872521622	-11.659447196593243
O	0.6878089091945941	2.9943655825216218	-10.353707096593242
O	-0.18142631780540575	-0.5009387174783781	-11.609693996593244
O	-0.8323103262054058	0.8502173045216219	-15.098945896593243
O	4.4162211791945944	0.09932281052162184	-13.261535896593243
O	10.107216699194595	0.49653633752162185	-12.353162996593243
O	7.777783509194595	-0.7909917474783781	-9.619289046593243
O	7.226532139194594	-4.562680197478379	-9.276954116593243
O	3.707911599194594	-5.825335097478378	-8.480818906593242
O	3.602682709194594	-9.418747237478378	-7.152254206593244
O	-2.157669800805406	-8.711841777478378	-5.4490429165932435
O	-5.946590240805405	-4.937049157478379	-8.807835716593242
O	-10.257322080805405	-2.0945335574783783	-8.850176046593242
O	-8.807308370805407	5.516916042521622	-13.938591196593242
