95

O	1.7562611706986297	0.22555741234246618	-0.8711607543712321
O	1.56923705069863	-1.1366438176575338	-1.4657995633712322
O	0.41496255069862975	0.8755198353424662	-0.9525132953712321
O	2.74302610069863	0.8506281653424662	-1.7667899133712321
O	2.98906451069863	-1.4639259276575338	-1.6409457833712322
O	0.7757200506986298	-1.9629550576575336	-0.5268749273712322
O	1.0228299106986296	-1.1283573076575337	-2.8859112833712324
O	-0.46776164630137024	0.1627716123424663	-0.011907084371232168
O	0.7043003306986299	2.282190142342466	-0.5159259863712322
O	3.60624488069863	-0.26061314765753374	-2.3553738933712323
O	3.93368636069863	-1.716221307657534	-0.5934028003712322
O	2.9508814006986297	-2.596691137657534	-2.3813901233712325
O	-0.5427862533013702	-1.278908867657534	-0.3408247526342322
O	-1.7836666453013703	0.7167062023424663	0.25311976962876787
O	-0.6252489833013702	2.875724512342466	-0.22473300237123217
O	4.23934835069863	-0.9137633676575339	0.3103124636287678
O	-1.5016634343013702	2.059103956342466	0.6812286366287679
O	-2.62975931930137	0.032416742342466165	1.2164168566287679
O	-2.2010119993013704	2.559300792342466	1.644561186628768
O	-3.87795117930137	0.7072897423424662	1.6463573066287678
O	-3.52976496930137	2.0980022753424663	1.9712783966287677
O	-4.238035379301371	2.7434889723424662	2.7602678166287675
O	-10.29366686930137	-2.5550159576575338	8.278937026628768
O	-7.10071348930137	-4.282768567657534	7.1097940466287675
O	7.67503180069863	-7.503273727657533	7.105408306628767
O	5.86947769069863	-10.182345257657532	5.109257616628768
O	2.70509850069863	-6.356297117657534	7.491369636628768
O	2.93117015069863	-6.290845147657534	3.662862056628768
O	0.32517099069862987	-9.084242457657533	3.447261966628768
O	-2.0058938093013703	-7.045367027657535	5.709094156628768
O	-1.4083675983013704	-3.9652964576575336	3.5405409866287676
O	-2.25177043930137	-6.152707437657534	0.4881571746287678
O	-5.41693299930137	-7.274065017657533	2.2188995266287677
O	-6.32276338930137	-3.670453957657534	2.9180098266287677
O	-5.49362825930137	-2.834616877657534	-0.7290903233712321
O	-7.93318397930137	-5.472487247657534	-1.9484774033712322
O	-10.70736638930137	-3.9816923476575337	0.20206873362876782
O	-9.78004155930137	-0.4121521676575337	-0.7810080713712322
O	-9.98898919930137	-1.368558687657534	-4.483544333371232
O	-9.91613371930137	3.0403792723424665	-11.646836503371233
O	-6.8338811093013705	0.9096811653424662	-12.408020003371233
O	-4.644186889301371	3.9277651823424664	-13.287097103371233
O	-5.62561497930137	5.740340782342466	-10.073620733371232
O	-5.74232868930137	2.7772475823424663	-7.657832023371232
O	-2.43125106930137	3.5077558223424665	-5.805342483371232
O	-2.92606886930137	7.311956562342466	-5.947767263371232
O	-6.41893711930137	7.136901102342466	-4.382304593371233
O	-5.16775796930137	4.770721832342466	-1.6188272233712322
O	-2.24985425930137	7.001103732342466	-0.6276356783712322
O	-4.452757539301371	10.167767372342468	-0.8635601393712322
O	-7.00133540930137	8.491454592342466	1.4416702066287679
O	-4.14137502930137	7.482874702342466	3.7505265966287675
O	-3.2203953693013703	11.178244292342466	3.8159026866287675
O	-6.71961871930137	12.171394142342466	4.897516136628767
O	-7.11880043930137	9.565722102342466	7.641776916628768
O	0.2585344106986297	6.542056032342466	9.009509446628767
O	-3.40403914930137	5.635905322342466	9.591757046628768
O	-3.8744576893013702	2.9060945423424664	6.999210276628768
O	-6.83201599930137	1.4931567253424662	8.883128376628768
O	-8.201840459301371	1.5511128533424663	12.451405896628767
O	-3.26682384930137	-0.8037656976575336	11.138774296628768
O	-1.6628094853013702	2.470061432342466	12.301578296628767
O	2.11077185069863	2.7851972323424663	11.725821096628767
O	6.92829313069863	-0.2581104976575337	13.053479396628768
O	9.02916371069863	0.6858208453424662	9.989980496628768
O	9.91857228069863	0.11524045234246616	3.0378527866287675
O	10.51305058069863	2.788624182342466	5.690183096628767
O	11.76823898069863	4.986051252342466	2.8978352566287677
O	8.50127924069863	4.623626052342466	0.9331488866287678
O	6.53410767069863	5.195445982342466	4.156982396628767
O	8.43654131069863	8.470448782342466	4.635515086628768
O	7.51651360069863	9.628244312342467	1.107838106628768
O	3.8578281106986303	8.635290562342467	1.601221006628768
O	0.9024985306986298	13.892139542342466	1.969301036628768
O	3.13222596069863	7.365013912342466	-6.852116603371233
O	8.03195822069863	5.199848712342466	-6.604819363371233
O	5.10343324069863	3.398148532342466	-4.948820423371233
O	4.18100010069863	1.7024859733424662	-8.257655283371232
O	7.80153642069863	0.5322020303424663	-8.755610413371233
O	8.12601595069863	-0.8944565876575339	-5.224144633371233
O	4.75932966069863	-2.634247637657534	-5.695627953371233
O	5.63642670069863	-4.278867457657534	-9.006144193371233
O	9.04175891069863	-5.377396187657534	-7.652855393371232
O	7.41528891069863	-6.908962317657534	-4.563774573371233
O	4.74336826069863	-8.547289887657533	-6.736667593371232
O	6.16238235069863	-12.243297357657534	-3.7959344633712324
O	6.30565037069863	-14.762551857657535	1.401106986628768
O	3.89096329069863	-11.880893357657532	0.696024656628768
O	0.32278267069862976	-12.703213957657534	-0.4354044532712322
O	-1.2895931473013702	-10.528734557657533	-3.1316170433712323
O	-5.11040437930137	-10.876807257657534	-3.3349865333712323
O	-5.40264701930137	-5.963717427657534	-6.870601423371232
O	-0.6719984473013703	-4.708774457657534	-10.806841103371232
O	1.7404658406986298	-1.144804327657534	-13.618589203371233
O	10.85431538069863	-2.8354492176575343	-13.547533003371232
