99

O	-3.2334716187671235	-0.7100999086849318	-0.13257764765753383
O	1.4968272312328763	-0.04089074868493192	0.24113062234246613
O	0.870291061232876	1.153976960715068	0.3327537493424662
O	-0.22828888376712386	1.1318027164150681	-0.45993612155753383
O	-0.34361125776712387	0.26056746031506817	-1.5726538646575339
O	0.07106885623287607	-1.0016158986849317	-1.4653416946575337
O	1.2844312312328763	-0.953989378684932	-0.8444325626575337
O	1.1840406512328763	2.145079501315068	1.3933028053424663
O	2.4469370812328757	2.572176761315068	1.8297023753424664
O	2.234945411232876	3.3838019813150684	2.9011202153424662
O	1.0127932412328762	3.2821359713150677	3.297906595342466
O	0.37849394123287605	2.622740261315068	2.359525075342466
O	-0.07736683076712392	-1.8264412886849317	-2.647188614657534
O	-0.8678599864671239	-2.9423096286849324	-2.720799864657534
O	-2.206040938767124	-3.2029540786849324	-1.8024295746575338
O	-1.839389560767124	-2.7931573686849323	-0.2725726646575338
O	-2.8617466487671237	-4.536323868684932	-1.8068645646575339
O	-3.1681031187671236	-2.321402288684932	-2.390561224657534
O	-2.059591748767124	-1.716106228684932	0.47968698734246623
O	-1.113197990767124	-1.3902569886849319	1.3661965953424662
O	-0.3934883857671239	-2.4415249686849316	1.4340616753424662
O	-0.727950662767124	-3.1496527586849323	0.3551884533424661
O	-1.101641703767124	2.882499951315068	2.144196245342466
O	3.445451341232876	2.993699801315068	0.8121563053424663
O	-0.015655111767123864	-4.180805878684932	-0.4429304328575338
O	-0.9598018759671239	-0.3937039386849319	2.540527085342466
O	13.211434821232876	3.5503411613150684	1.9389139953424663
O	11.135922921232877	0.48844853231506813	0.9834142653424662
O	3.0707280612328764	-12.130036068684932	3.421790525342466
O	4.040079271232876	-12.029866268684932	-0.25626032265753385
O	6.031794671232876	-7.962096538684932	2.903586115342466
O	3.3281441012328763	-7.000018658684931	0.3255710623424662
O	6.001669071232876	-6.889609108684932	-2.403125844657534
O	8.197889121232876	-4.553925968684932	-0.24574470065753382
O	5.090797341232876	-2.340971958684932	0.4512817753424662
O	4.455564631232876	-2.317654858684932	-3.365523114657534
O	8.091407531232877	-1.2967397486849317	-3.868700764657534
O	7.658156111232876	1.4938735553150682	-1.3330899556575337
O	4.354398231232876	2.4416406013150684	-3.088123134657534
O	6.195854241232876	2.8200578613150684	-6.395398804657534
O	8.739247031232876	5.160818871315068	-4.762324704657534
O	6.069901171232876	7.102355541315068	-2.896192494657534
O	4.141796901232876	7.627824991315068	-6.156530954657534
O	-2.381966178767124	12.405981031315068	-8.340325284657533
O	-3.961519158767124	9.054947501315068	-9.281080474657534
O	-7.170856668767124	9.730615331315068	-7.305599834657534
O	-5.181399368767124	10.693305191315067	-4.194687844657534
O	-2.323506468767124	8.114060381315069	-4.409913774657534
O	-3.5481149687671243	5.846954791315068	-1.6325567346575338
O	-4.873293608767124	8.718748481315068	0.5597157023424661
O	-1.537335474767124	10.573956821315068	0.4577138583424662
O	0.458079681232876	7.419393811315068	1.2798357253424661
O	-1.6884916357671238	6.570651001315068	4.313828695342466
O	-1.714711419767124	10.206110371315068	5.492681235342466
O	2.0946271912328758	10.212796911315069	5.254113065342466
O	2.1669961212328763	6.838677651315068	7.074985385342466
O	0.14615922123287617	8.63078370131507	9.800239925342465
O	2.6608241812328757	11.460958931315067	10.134008225342466
O	5.751762981232876	9.252946751315068	10.245450225342466
O	6.352061141232876	3.569508991315068	10.264406825342466
O	6.041359331232876	2.8546397913150683	6.527480015342466
O	9.718891321232876	3.504322921315068	6.024657335342466
O	12.926645521232876	3.5402988013150685	8.143332525342466
O	9.921742021232877	-1.1242244786849318	7.235895235342466
O	8.322315451232877	-0.4768687486849319	10.655724025342465
O	5.400042411232876	-2.8048763886849315	11.575970425342467
O	4.440564751232876	-8.563857268684933	12.023444625342465
O	0.7237986012328761	-8.579003798684932	11.069155525342467
O	-4.098945338767124	-7.578887178684932	6.084635055342466
O	-3.871586678767124	-7.071366788684932	9.850105225342466
O	-7.389621628767124	-5.757518858684932	9.708940425342465
O	-6.453496068767124	-3.1064744286849324	7.129881285342466
O	-3.349629938767124	-2.2525022886849317	9.183875705342466
O	-7.7791258787671245	0.7659295813150682	10.179958325342467
O	-4.7427663087671235	2.5888055013150684	8.776095405342465
O	-9.297859068767123	4.638668241315068	1.8071325353424663
O	-11.356665878767123	-0.2921002086849318	2.088863505342466
O	-7.636011368767124	0.12933069031506816	1.1596105953424662
O	-8.561706558767124	0.6405540613150682	-2.502259744657534
O	-10.753837788767123	-2.5370191586849318	-2.503887744657534
O	-8.030118098767124	-4.684377228684932	-0.8392783666575339
O	-5.654131468767124	-3.3450610986849325	-3.426189624657534
O	-7.569768208767124	-4.066734488684932	-6.482746424657534
O	-8.348875368767123	-7.568596898684932	-5.143381994657534
O	-4.656568888767124	-8.253415148684931	-4.452816914657534
O	-3.7370480387671243	-6.848300868684932	-7.874817424657534
O	-6.183958098767124	-9.231162768684932	-9.594327274657534
O	-1.177684194767124	-11.076903668684933	-7.741291084657534
O	3.1912332712328757	-14.258766368684933	-5.666503514657534
O	3.0734179712328764	-10.488746868684933	-5.041827704657534
O	4.909902851232876	-8.159745378684931	-7.455125664657534
O	3.2370121912328758	-4.853229968684932	-8.390200624657533
O	5.646191711232876	-2.303930608684932	-9.925439044657534
O	1.5437199412328761	2.058464755315068	-9.341612954657535
O	-2.865840208767124	3.7976662813150686	-11.211869174657535
O	-4.5518639487671235	0.6439183973150682	-9.934494864657534
O	-9.421733458767124	2.061150758315068	-8.902158394657533
O	-12.237685478767123	0.1498695743150682	-10.646593274657533
O	-14.434410178767124	-5.554787988684932	-7.114293824657534
