26

O	-0.45844496620619246	-7.480368945066809	23.305723679600952
O	-4.36393346932529	-8.082417606720043	26.01642892772583
O	-3.2616465416120004	-8.249794989980435	26.781673694615243
O	-2.290198565332962	-7.4180583617772795	26.334203209798034
O	-2.5794657128751615	-6.2333452551928	25.61082898461031
O	-3.5249847216290524	-6.25068358780131	24.67153376114694
O	-4.586069037426365	-6.917693211117996	25.20934685679061
O	-3.09396922189576	-9.399821071216117	27.706233957833337
O	-4.025012730430571	-9.91642064121456	28.619495649023246
O	-3.4714965087530887	-11.042992879126485	29.144916374600093
O	-2.432469183824183	-11.384658924432474	28.46292087086522
O	-2.164178672553253	-10.37202752549934	27.67533212483014
O	-3.763254714093324	-4.999760788582118	23.980482547008652
O	-3.568727316581916	-4.804662343050729	22.639007282339886
O	-2.5016820243644067	-5.648278110479494	21.716080112260336
O	-2.6487582573524904	-7.219349310122843	22.107146102768482
O	-2.5266972892861785	-5.508975616878827	20.236954121702034
O	-1.2403434673246603	-5.100329698737168	22.112783549306496
O	-1.9651743236781607	-8.049821509926337	22.89292703711235
O	-2.663109176695529	-8.994598809564993	23.531692215012157
O	-3.783587284371047	-9.001408081587014	22.921582065596198
O	-3.8036065585509107	-7.8558684709803535	22.239954865399913
O	-0.7275277177881976	-10.124615467266057	27.2516996935987
O	-4.715902047528356	-8.974881568928865	29.539435066662357
O	-4.903868804502157	-7.0016720280189295	21.72284086217081
O	-2.3508472648248624	-10.252479269738513	24.377818503193893
