23

O	-4.646920876164165	-8.668248838153477	27.99002450111391
O	-4.802559225683495	-9.291560779719001	29.367778691981584
O	-4.1336566105571295	-10.58909183212129	29.513085596906123
O	-4.324158918871482	-11.374539463877376	30.45832568846601
O	-2.966820030207529	-10.760137042572804	28.695591593739998
O	-2.7170699136794743	-9.979129379016989	27.59811673206626
O	-1.3732447263706735	-10.481761595298709	26.966311152961122
O	-1.1517748854218186	-9.858585141787469	25.646514807003342
O	-1.8954199618640737	-8.599313475905175	25.34638654760067
O	-3.2900267362413134	-8.508091403510706	25.900475309295228
O	-3.2608248024315483	-8.677008561741369	27.415921282463213
O	-3.940526370619176	-7.209337335766676	25.51275705432594
O	-3.974963451222115	-7.026750793435879	24.0219838905763
O	-2.6098206148593315	-7.239897996872969	23.43293500854966
O	-2.003814731480646	-8.543951188536038	23.863682191264083
O	-0.7819415652341171	-8.687334140830195	23.030093144708022
O	-1.1930359922788885	-7.988129129414469	21.738724478272427
O	-2.5921267773095678	-7.481821724427546	21.94947238840389
O	-1.7524779999018336	-6.04047069522255	23.702987121894108
O	-2.5294782136776317	-7.473867458074889	27.925118511666035
O	-2.9758174557730888	-6.338148512696163	21.132814878343208
O	-2.6742055314398963	-6.3881650810174095	19.967573823033558
O	-3.946855298170939	-5.270886532514742	21.398302620184715
