27

O	-1.4234376974522154	-11.029641224794444	28.88081235930653
O	-3.9967450246989253	-5.715502107172254	20.998381894158385
O	-3.341354178007907	-6.185823705460426	22.177020880168207
O	-3.1781551346640264	-5.035053241272673	22.992800640269838
O	-2.7988225442576997	-7.682565941516706	25.116942591977477
O	-3.30630310414665	-5.510708190976013	24.360481432958345
O	-4.499277561322284	-10.536161745461184	30.852617774810646
O	-3.8045118936080287	-6.921275164060775	24.430283920265467
O	-4.061826863045975	-7.105747216090529	22.968316995032218
O	-1.8559172024165504	-8.045653056948794	24.06258290037775
O	-2.411430915229098	-9.29942431104806	23.529512631730785
O	-3.6229761655418087	-9.879693415316906	23.401503600857538
O	-3.9122151498784152	-11.214087482612562	23.796607994503947
O	-2.8815902905024924	-11.973530267455326	24.434311200843123
O	-1.6741614627521644	-11.368935307402234	24.376302533803685
O	-1.5655488746244357	-10.350933221069337	23.39617221618274
O	-0.11916142466716817	-10.108693417366917	23.31132679973217
O	-3.066215432792353	-8.741908084289001	26.04703709600936
O	-4.362508873091485	-8.806068086757636	26.46196009278747
O	-4.6618821992615835	-9.066944944801168	27.817651580773283
O	-3.780977821158677	-9.735490321329666	28.6105945655436
O	-4.285802176038053	-10.43407173275503	29.73616446947618
O	-2.6607488565758652	-10.135215908731107	27.995657352001313
O	-2.2102423313717448	-9.386812329467087	26.893034655756253
O	0.024720449513728315	-9.36545843264773	24.380422691490015
O	0.6595574510482631	-11.192417703317837	23.572084738978603
O	-0.12003551710576055	-10.010511503227377	22.00290696183837
