104

O	-1.6760524940281691	3.08542391443662	2.8699557140563385
O	-1.4866008610281691	2.56068083443662	1.6036531340563385
O	-1.8037252890281692	3.45035120443662	0.5451941340563385
O	-0.40610013202816914	3.59492501443662	-0.017055335943661487
O	0.20785592397183084	4.19045695443662	-1.1178744139436616
O	0.6682328839718309	3.22127362443662	-2.1671893359436614
O	1.087187813971831	2.12977194443662	-1.2766764069436616
O	1.1664455039718309	0.8173695381366199	-1.9679883559436617
O	1.6578944439718306	0.6639490534366199	-3.296135915943662
O	2.9338630539718307	-0.07651619756338002	-3.2197513459436617
O	2.5792711439718308	-1.2726463055633803	-2.3762149559436616
O	3.5494798739718307	-2.14185589556338	-2.4579267059436614
O	3.6603793139718306	-3.1529722855633797	-1.4936404889436616
O	4.133039893971831	-4.246340405563379	-1.8386810159436617
O	2.7750339339718306	-3.09728474556338	-0.3482067679436615
O	1.6797893639718309	-2.13436796556338	-0.2769277349436615
O	2.0699278039718307	-0.9820336055633802	-1.0808124729436615
O	1.3689006039718308	0.040611838436619974	-0.8420470359436616
O	0.9143516839718308	0.39527143043661994	0.45394965405633847
O	0.4487589039718308	1.67334487443662	0.9301803640563385
O	-0.06295234402816918	2.16295600443662	-0.3182653209436615
O	-1.2602343920281691	1.6383881374366198	-0.9682672699436615
O	-0.4071933310281691	-0.28084911556338	0.13187067405633845
O	-0.35998083102816913	-0.9696931355633801	1.3730569540563384
O	-1.5960071670281692	-1.5092600755633803	1.7359229340563385
O	-2.682259536028169	-1.3120417255633803	0.9470246940563384
O	-3.925344946028169	-0.92642444556338	1.5828811540563383
O	-3.8361812260281694	0.07740972443661998	2.4264266140563384
O	-4.153452206028169	1.40592568543662	2.1873755440563385
O	-2.259881756028169	-1.4203905355633801	-0.3304239649436615
O	-0.9741902687281692	-1.06395910556338	-0.7629590089436615
O	0.2201880039718308	4.09329591443662	1.1396152940563384
O	-0.6328408950281692	5.19437821443662	1.4023122740563383
O	7.68603240397183	-11.07385841556338	2.2236613540563384
O	8.831213333971832	-8.91524507556338	5.145453444056339
O	6.95541469397183	-5.771695305563379	6.226180964056339
O	4.901781153971831	9.06887910443662	8.436209334056338
O	2.2250581439718307	7.18132203443662	10.376054234056339
O	4.658048393971831	4.36979201443662	11.319346134056337
O	5.95154513397183	4.11705038443662	7.71774462405634
O	2.3904778739718306	4.03301164443662	6.389943354056339
O	1.401945353971831	1.49638554543662	9.128190214056337
O	4.375595413971831	-0.71459989556338	8.088307194056338
O	3.412234113971831	-0.38094438556337995	4.476846124056339
O	-0.08967633702816913	-1.3922771055633802	5.4888064740563385
O	1.2280596139718307	-4.37408795556338	7.304857104056339
O	3.1653185439718303	-5.320542645563379	4.254700974056338
O	0.07194302697183086	-4.82385819556338	2.0379512740563386
O	-1.888837208028169	-7.185242295563381	4.233546364056338
O	0.7769740839718308	-9.887221815563379	3.776677624056338
O	1.028715943971831	-9.19644571556338	0.032297392056338525
O	-2.726614386028169	-9.60644781556338	-0.3508796809436615
O	-2.5613847660281692	-12.98690411556338	1.4261408540563383
O	-7.926653036028169	-10.26731601556338	-6.962412125943661
O	-9.546461566028169	-7.17302232556338	-5.386689465943661
O	-9.478384426028168	-5.1564554155633795	-8.652976305943662
O	-5.781862726028169	-5.940152015563379	-9.179884065943662
O	-4.507348456028169	-5.767007765563379	-5.564659235943661
O	-2.737301006028169	-2.40699012556338	-5.871265355943661
O	-1.541099782028169	-2.9834987455633803	-9.434589825943663
O	0.0709537579718309	-6.34360913556338	-8.551001235943662
O	1.7395926439718306	-4.903400905563379	-5.559962015943661
O	3.3020789439718303	-1.9102629655633803	-7.402457045943661
O	4.31859410397183	-4.19110374556338	-10.279691915943662
O	6.070534013971831	-6.52177181556338	-7.820174225943661
O	7.74016527397183	-3.48150510556338	-6.225134195943661
O	8.997745013971832	-2.64195453556338	-9.704627135943662
O	12.46478793397183	-2.20556840556338	-2.4766977559436616
O	9.147853133971832	-2.7528701355633802	-0.7682869299436615
O	10.588728133971832	-5.5356348055633795	1.3736036240563383
O	14.006691933971831	-6.62423552556338	2.6012980340563385
O	11.647351033971832	-1.73700784556338	4.084305154056339
O	13.781084533971832	-0.16068457556338	1.3317416940563387
O	10.316113233971832	10.35827281443662	1.6546275240563384
O	3.5829787139718308	10.68720269443662	-0.23323759294366153
O	6.946573613971831	11.43084588443662	-1.8657243859436616
O	5.032675743971831	12.42377078443662	-4.952249485943661
O	3.309715203971831	9.027755544436621	-5.159291645943661
O	6.61971863397183	7.30130631443662	-4.458301705943661
O	5.253662323971831	7.90687680443662	-9.717522835943662
O	5.624880553971831	4.3284379544366205	-8.46928837594366
O	-2.703190096028169	2.9802172244366196	-10.037660555943662
O	-3.5361742260281694	7.93698555443662	-8.202324345943662
O	-2.4246142760281693	5.165544864436621	-5.795812585943661
O	-6.040323886028169	4.08530829443662	-5.297197205943661
O	-7.14410457602817	7.6907209044366205	-4.548057375943661
O	-4.370126556028169	8.31665451443662	-2.0141629659436617
O	-5.243195836028169	5.00805561443662	-0.3780071049436615
O	-8.90513017602817	5.654482884436621	-0.004759520943661499
O	-8.24754939602817	9.18296186443662	1.3074080640563386
O	-5.811050156028169	7.82687645443662	3.9046951040563385
O	-8.279526876028168	5.0986806244366205	4.8526964040563385
O	-10.992151466028169	7.67085956443662	5.474977664056339
O	-6.85835732602817	6.83366497443662	9.236729804056338
O	-2.384476856028169	4.928113424436621	10.633223234056338
O	-3.509584846028169	1.30426491243662	11.184402134056338
O	-5.167705446028169	-0.5986309955633801	8.301951574056337
O	-5.25410272602817	-4.41215168556338	8.784240384056337
O	-6.793091316028169	-5.095501625563379	2.8793579940563383
O	-9.393168366028169	-2.8628647055633802	4.639125974056339
O	-10.647048606028168	-4.52787412556338	-0.44089493294366155
O	-10.388819766028169	-0.7535335855633801	0.061127795056338474
O	-11.906193266028168	1.3589490304366199	-4.378331665943661
O	-14.837525966028169	3.81072914443662	-4.244214385943661
