26

O	-0.6705426441761202	-7.8817130772848945	23.186821782291496
O	-2.2417643962995646	-7.580841989886795	26.326432053086855
O	-3.2141621044241364	-8.320118942763576	26.902483899639954
O	-4.3751445612793045	-8.047781943986939	26.285750388535792
O	-4.619279406816203	-6.875984387864029	25.50469211682878
O	-3.6147801665600388	-6.245166364481168	24.87668627205745
O	-2.5053481581876262	-6.458944618871898	25.509588623196898
O	-3.0848394204238123	-9.533211842315655	27.72747937849371
O	-3.94898722138682	-10.014134738389098	28.718892298362974
O	-3.4524518685803423	-11.213614537526526	29.111405299519614
O	-2.403849761522186	-11.528585448149082	28.430967487938076
O	-2.12759531403219	-10.479775384110914	27.70610303812835
O	-3.829891558338903	-4.975152958068233	24.23434380972766
O	-3.6233812222439052	-4.784802204663226	22.895382702929606
O	-2.604811629642742	-5.738427213789029	21.972332585588365
O	-2.9171531650598137	-7.353408668852306	22.198754762991758
O	-1.3169911920387292	-5.154418968903956	22.26256891104588
O	-2.7347571493774114	-5.466110112873114	20.482752821725423
O	-2.2779393669850467	-8.338847177229125	22.849837781015605
O	-3.039548769997102	-9.114114708397537	23.68660978093321
O	-4.190780286979232	-9.017014338346902	23.141123495073998
O	-4.119751622515483	-7.82625651780372	22.48041423904554
O	-0.7300609873400825	-10.302378624838157	27.14215943146353
O	-4.442263360548589	-9.054249453589179	29.761869635480156
O	-5.224764075435655	-6.8522980506284235	22.188817274271702
O	-2.711894076787294	-10.41502835640806	24.478544403657423
