99

O	4.043802673297222	1.589085582284861	1.0772480246305558
O	-4.333744346702778	-3.2164735467151386	-0.8509642523694443
O	-2.956129086702778	-2.8878289367151386	-0.6663068863694442
O	-2.2897258667027782	-3.4461312167151386	-1.7890751253694444
O	-0.10682005670277817	-1.1446818267151389	-0.5228015873694443
O	-1.1966481269027782	-2.5335551767151387	-2.081660685369444
O	3.8954019032972216	4.005121823284861	-1.7035927753694442
O	-1.3010144007027782	-1.2523823467151387	-1.3132288853694443
O	-2.633011206702778	-1.5142427667151388	-0.6848962893694442
O	-0.4137076107027782	-1.9150224867151389	0.6792684576305558
O	-1.059442878302778	-0.9272633967151388	1.5579377346305556
O	-1.797237948702778	0.19486182528486118	1.4259003946305557
O	-1.5228721037027781	1.412522682284861	2.105900114630556
O	-0.35509079470277816	1.4843533512848612	2.9285382446305555
O	0.22530757329722184	0.2787572222848612	3.1194836646305557
O	-0.6053907457027782	-0.8331026267151388	2.832275794630556
O	0.11766440329722183	-1.9649081467151386	3.427358174630556
O	0.5969113132972219	0.07879719328486112	-0.26465092356944425
O	0.2148697532972219	1.1198821412848612	-1.0563836183694444
O	1.1838051332972217	1.9974372432848613	-1.5917730153694443
O	2.387508503297222	2.1650545932848613	-0.9796401523694442
O	3.088319343297222	3.3783434432848614	-1.1954306973694444
O	2.5449130132972217	1.4692325422848613	0.15345152463055572
O	1.828264783297222	0.26700082528486113	0.2945014096305557
O	1.015797843297222	-2.1461986267151385	2.4911122946305557
O	0.8608947132972218	-1.6573460467151389	4.523656664630556
O	-0.9675367357027781	-2.522141696715139	3.9105063746305557
O	1.913394283297222	10.86913686328486	-7.6557719653694445
O	-0.8791910967027781	8.41086666328486	-6.883960995369445
O	-12.396761486702779	2.5854315532848613	1.0919580446305557
O	-12.42705388670278	1.0356484992848611	-2.381323805369444
O	-8.615057826702778	4.902967263284861	-1.4523480253694443
O	-7.383905296702778	1.3388451212848613	-1.8853171453694442
O	-7.577863516702778	1.6582794822848612	-5.683476725369444
O	-5.516055256702778	4.884430923284861	-5.508199525369444
O	-2.989977426702778	3.1788472632848612	-3.348986685369444
O	-2.864922126702778	0.28404877128486117	-5.847214345369444
O	-2.280635806702778	2.8437798732848614	-8.540984455369445
O	0.5572146632972219	4.345775763284861	-6.506674385369444
O	1.874082823297222	0.8029718857748611	-5.9310210553694445
O	2.0039199632972218	0.2056643692848612	-9.723820665369445
O	4.010810953297222	3.399525033284861	-10.225637055369445
O	6.253138673297222	2.658100123284861	-7.247452335369444
O	7.046583713297221	-0.7934229667151388	-8.683205265369445
O	9.486363913297222	-8.894448776715139	-6.213329145369444
O	10.542562513297224	-10.07180483671514	-2.7219784553694444
O	11.253804313297223	-6.499653776715139	-1.5714221653694442
O	8.418657723297223	-4.658551686715139	-3.3622356153694444
O	6.290157693297222	-4.105525676715139	-0.25934554836944423
O	9.195270713297223	-3.4486349267151386	2.081938944630556
O	10.687646613297222	-0.7667691767151389	-0.19717124876944425
O	7.308024013297222	0.9765354692848611	-0.5532281403694443
O	6.716484033297222	1.189772166284861	3.184905774630556
O	10.297011713297223	2.2025809832848613	3.8542812346305553
O	9.901872313297222	4.998085893284861	1.2864231346305557
O	6.658108033297222	6.003883493284861	2.914536074630556
O	8.590800343297222	6.212523943284861	6.178444314630555
O	11.085797713297222	8.614978093284861	4.645642644630556
O	8.571838903297223	10.93231256328486	2.976478514630556
O	1.3546558732972218	9.10920009328486	6.157956324630556
O	2.814424153297222	10.81840356328486	3.079483754630556
O	2.1639850232972218	8.24681614328486	0.38887506963055574
O	2.330374323297222	10.78182808328486	-2.331426585369444
O	1.963634933297222	14.56619446328486	-2.661638205369444
O	-2.297155586702778	11.26247776328486	-1.1333414883694441
O	-1.4405448677027781	12.21163906328486	2.475297834630556
O	-3.392368226702778	10.36301818328486	5.2172103846305555
O	-8.978314866702778	9.36762717328486	6.644300404630555
O	-8.562084196702777	5.910471093284861	8.249327274630556
O	-6.988114626702778	-0.8797260267151389	7.269123304630556
O	-6.473848946702778	1.7024545612848612	10.013429474630556
O	-4.768479796702778	-0.9684105067151388	12.045759574630555
O	-2.243359986702778	-1.6417729567151387	9.259923554630555
O	-1.7724214667027782	2.140190563284861	8.799969584630556
O	-0.8640583997027782	2.3422423932848613	12.494813774630556
O	1.787305953297222	-0.4053441867151387	12.085079474630556
O	3.2224589232972223	1.2834371102848612	8.954306904630556
O	8.56787482329722	3.4036731832848615	10.626284774630555
O	5.786180673297222	-6.471936636715139	6.1366427646305555
O	1.110190043297222	-8.34387743671514	8.051730214630556
O	1.2017446632972217	-6.2376240767151385	5.056536184630556
O	1.730713023297222	-9.12148382671514	2.6068715546305556
O	-1.2327451801027782	-10.91420763671514	4.225932324630556
O	-3.644194886702778	-7.973526836715139	4.006367654630555
O	-2.607653286702778	-7.564770086715138	0.3425416126305557
O	-3.1269092967027783	-11.06139273671514	-0.7111299183694443
O	-6.489132356702778	-11.15709093671514	1.1224908546305556
O	-7.638608936702778	-7.972150356715139	-0.5858062643694443
O	-6.350523556702778	-9.23638833671514	-3.9460174753694446
O	-10.847065836702779	-7.571576536715139	-5.041904005369444
O	-14.543601986702779	-3.221949466715139	-5.872113645369445
O	-10.782575566702779	-2.572717916715139	-5.637418505369444
O	-8.745962626702777	-2.4340267967151386	-8.889167365369444
O	-5.270183796702778	-4.023895656715139	-8.927402095369445
O	-3.036415116702778	-2.8698973867151385	-11.821442625369444
O	1.820454933297222	-5.292717116715139	-9.126287705369444
O	1.167436503297222	-10.52204113671514	-5.703689715369444
O	3.147821693297222	-13.469499836715139	-1.9648241253694443
O	-3.8050540367027783	-16.87782923671514	3.212851164630556
