96

O	1.3992352694958896	0.8118605132821919	2.6283384805342465
O	2.47018753949589	1.400808698282192	3.4808090105342466
O	2.60794800949589	2.827059149282192	3.0598979605342462
O	3.0056050994958894	3.7381165792821918	3.807989720534246
O	2.10429770949589	3.1694177992821917	1.7488151805342462
O	1.7420307294958897	2.328635189282192	0.8323581905342463
O	1.9628420594958897	2.636400899282192	-0.6184920054657536
O	0.8692147594958897	2.108986279282192	-1.4900023914657536
O	0.5966818394958897	0.6878852672821919	-1.1139323404657535
O	0.5703932494958897	0.38618678528219197	0.32995611053424634
O	1.6304439094958898	0.9224035252821919	1.1793269605342465
O	0.15089489949588986	-1.028469190717808	0.5032166605342465
O	-1.1733829105041103	-1.303909220717808	-0.1728482494657536
O	-0.9586320935041103	-1.0880337407178082	-1.6454970024657536
O	-0.6831253605041102	0.3591574162821919	-1.8181366134657537
O	-0.7125516435041103	0.5227361432821919	-3.2932014394657534
O	-1.8492293085041103	-0.39507640071780803	-3.7259316494657537
O	-2.04847543650411	-1.3759924907178083	-2.6159848694657537
O	-2.2689484165041103	-2.623833570717808	-3.1919773294657534
O	0.1554252994958898	-1.9903120907178082	-2.0837305794657537
O	-0.5799662895041102	-3.276992710717808	-1.9632607394657535
O	-3.23215446050411	-1.229800090717808	-1.7468037684657536
O	-4.40547831050411	-1.7464742807178082	-2.4045657294657534
O	2.5670476294958897	1.6189716712821918	13.210866290534247
O	0.10140731949588977	-0.2165716607178081	10.957692790534248
O	-12.334793960504111	-1.8571524307178082	2.4701614905342466
O	-10.95696113050411	-5.316713160717808	3.252126380534247
O	-8.33910722050411	-1.049566210717808	5.562758910534246
O	-6.486962240504111	-2.9518121107178077	2.8354845405342464
O	-5.44936746050411	-5.648226550717808	5.3361675205342465
O	-4.09400498050411	-2.919848860717808	7.682520670534247
O	-2.2208583545041103	-1.334087060717808	4.784996190534246
O	-0.8041216825041102	-4.819605350717808	3.987096160534246
O	0.25283363949588966	-5.150738600717808	7.586282440534246
O	1.9500197394958896	-1.7724538407178079	7.386841720534246
O	3.5663937494958895	-2.875145000717808	4.094432850534247
O	5.040928689495889	-5.935148690717808	5.755807670534246
O	6.58634199949589	-3.773714300717808	8.501397280534247
O	7.75925517949589	-1.1496198507178081	5.988784070534246
O	9.51326003949589	-3.876115090717808	3.9531062205342464
O	14.947820339495891	-3.759080330717808	-2.460512029465754
O	12.20680133949589	-5.735144640717808	-4.2437996094657535
O	12.176231339495889	-3.434049420717808	-7.307894079465754
O	11.91601513949589	-0.3144202307178081	-5.121148479465754
O	9.577490239495889	-1.626773300717808	-2.3835513294657535
O	6.396633239495889	0.20035997428219188	-3.5318005794657537
O	8.29062554949589	3.345817719282192	-4.629025149465754
O	10.02904613949589	3.7294920392821918	-1.2366611974657535
O	6.696848709495891	3.202404909282192	0.6292100005342465
O	4.848429279495889	5.864482549282192	-1.3536188474657536
O	7.83010775949589	8.265905169282192	-1.1827504624657537
O	7.905441209495889	7.816854619282192	2.6107703905342463
O	4.14408460949589	8.366133529282191	2.6811715405342462
O	4.808258889495891	11.620533239282192	0.8296754605342465
O	7.277127589495889	12.764014739282192	3.4853333605342462
O	5.133712069495889	11.901235139282193	6.510163010534246
O	-2.33648782050411	10.59599276928219	3.717397450534246
O	-0.21467400050411034	9.819851819282192	6.793029210534247
O	0.4558879394958897	6.113270879282192	6.266973770534246
O	1.1674578394958899	5.650504869282192	9.961369990534246
O	0.3490619794958898	7.420635809282192	13.249494790534246
O	-3.60030229050411	5.118700609282192	9.994543690534247
O	-4.176219200504111	8.637694799282192	8.604183460534246
O	-6.6155749905041095	8.903849679282192	5.661131470534247
O	-12.12689956050411	7.334486059282192	4.472481960534246
O	-11.71375056050411	6.697938439282192	0.7114066505342465
O	-8.93630794050411	2.7458029692821917	-4.356917819465753
O	-9.761614310504111	6.410535789282192	-3.8761393594657534
O	-8.42551150050411	6.993120329282192	-7.349146799465753
O	-5.052294670504111	5.454020669282192	-6.465486809465753
O	-5.01752259050411	7.376575579282192	-3.176543859465754
O	-5.47548889050411	10.597154339282191	-5.212390199465753
O	-2.4716750205041103	9.729800779282193	-7.419346609465753
O	-0.3408750015041102	8.84561512928219	-4.3723678394657535
O	4.20415338949589	3.395123729282192	-9.199419079465754
O	-0.4724636935041102	2.040344256282192	-11.456220409465754
O	0.18849426949588977	1.138277337682192	-7.818480549465754
O	1.97204083949589	-2.091798730717808	-8.842432019465754
O	-0.9542581565041102	-3.073416410717808	-11.118459309465754
O	-3.61611831050411	-2.460948030717808	-8.467183059465754
O	-1.4774954375041103	-4.434539530717808	-5.973266489465754
O	-1.0277573135041103	-7.4611699507178075	-8.200080689465754
O	-4.73738369050411	-7.451834810717808	-9.117158919465753
O	-5.732895060504111	-7.313739030717808	-5.452327429465754
O	-3.1908342905041103	-10.030972560717807	-4.624915629465754
O	-4.73377242050411	-12.317276460717807	-7.2679282094657545
O	-7.2438954705041105	-11.573079460717807	-2.2874111594657536
O	-11.07089961050411	-11.098013660717807	2.0153737105342464
O	-7.76634500050411	-9.171027560717807	2.1107054705342465
O	-4.7826211205041105	-10.72854016071781	3.943141100534246
O	-1.3068644227041102	-10.36642236071781	2.4082010605342465
O	1.56034489949589	-11.04058016071781	4.848117060534246
O	5.54480581949589	-8.66199170071781	0.9620350105342463
O	4.55960678949589	-9.276335360717809	-5.213124229465754
O	5.57391032949589	-7.465106320717807	-9.921945669465753
O	-2.03294614550411	-8.18272298071781	-15.172978909465753
