33

O	-4.282509650876177	-4.525752601415317	22.13234197754988
O	-3.2862894139433547	-5.080141707035421	22.961590553391346
O	-2.2286201931124756	-5.397983359562597	22.073354765346355
O	-2.3210021005164023	-6.904394670504765	22.066167486763096
O	-1.5604221595646361	-8.018570397601108	21.7469345623995
O	-1.1323525312527214	-8.926221948295062	22.845685288167505
O	-1.8639710058080499	-8.48499688986203	23.955093224573776
O	-1.6673368356022982	-8.752066641826858	25.362222521252455
O	-1.0855444552533844	-10.022161902424848	25.807537570760143
O	-0.8701819373401096	-9.787838033575586	27.27083302921511
O	-2.184524176557364	-9.566922426182913	27.84762267245256
O	-2.4487459318352416	-10.586256858186713	28.61740965857834
O	-3.7658079581030184	-10.768622449904836	29.155284509797163
O	-3.8280817942109753	-10.855904261723271	30.426209069472968
O	-4.727453682846511	-9.797209766695994	28.75554822774762
O	-4.5229984771313	-9.077010662334896	27.63955277017403
O	-3.225902677815828	-9.006827598093121	27.046847047775206
O	-3.0300856796777884	-8.712302224404908	25.806505959197498
O	-3.8716812078160587	-7.855291858401898	25.07030171767822
O	-3.8584573397045334	-7.431077262444214	23.67583753661778
O	-2.4387981102766565	-7.195683206296238	23.527669630611687
O	-1.6274150784071464	-6.16820304844827	24.181117999046307
O	-3.23972418182321	-6.657930141267331	25.81419786008941
O	-4.508447489305803	-6.03142636182845	25.850615243024826
O	-4.441378219697918	-4.700979697596605	26.154330928244136
O	-3.213435993256228	-4.118323985433097	26.304412743660766
O	-3.194842384276177	-2.708888148064356	25.97292948864817
O	-3.3077795495164812	-2.5297240220881188	24.71778309651681
O	-3.878068900193284	-1.8229659787482815	23.76082475506451
O	-2.5780700818098383	-4.969216574752014	27.15108970652257
O	-2.527676342047259	-6.3453068205226275	26.85829229564059
O	-3.5017653506811914	-6.971447313568776	21.296848161242742
O	-3.1478601643837942	-6.221278619543735	20.153306771090037
