30

O	46.89578537425636	11.022398979096433	-1.174174943276383
O	49.39731761518509	15.942488371473154	2.6790467947144085
O	47.15717016373531	11.481196298253467	0.10490924375375243
O	50.49208718054733	14.902294867221936	0.8628143483442514
O	47.34435768465569	10.57198302497901	1.150778340124564
O	50.506969192164995	7.417133785617954	1.5780252801145958
O	47.72039621886503	9.348281296287475	0.7243149655726961
O	50.75177371052514	9.777978990637937	-0.8853081332572161
O	47.72208117925291	8.9133447400278	-0.6010192538027122
O	47.15799346426027	9.737235147823363	-1.5185054315156217
O	46.99261947282293	12.837612704422382	0.6525966378252512
O	48.12913959741799	8.44723498376012	1.827479211870843
O	50.287786275025894	11.454574336352122	0.44139595105407015
O	46.529321053486484	13.297737479300453	1.7698403200811725
O	47.042864124365614	14.471722858231617	2.0851570321179
O	48.09278919806721	14.718163565919474	1.2499449980828663
O	51.723551532745525	11.814018229718613	2.232866188496044
O	47.819831202263735	13.864296618461655	0.17848536241946267
O	49.36172442721014	15.443010932766295	1.5112826886506214
O	51.40273163403663	8.33992033580754	1.9502654086038325
O	52.70893216937696	7.78396044501112	1.8729809397726553
O	53.795759276839824	8.660579312343348	1.8259310735866743
O	53.5046794569163	9.950302769950746	2.172745956476313
O	52.21899407383409	10.495378877204093	2.1379617558280266
O	51.16841791316517	9.67750409429277	1.6509363298804356
O	50.60148277930826	10.215681003912984	0.39808809204758244
O	50.70467487517944	10.576683278535912	-2.040634739694551
O	49.58539562001163	6.610236416739234	2.247728018345387
O	48.38967433121275	7.214202455492482	1.5187296653095892
O	47.1517561354616	11.968038631781733	-2.1416763001447743
