24

O	46.01319189372911	15.70464872079029	2.75729791275484
O	48.166271272011144	13.690438138242047	0.15335251959597862
O	45.21695179000821	15.842844826746052	1.18518963028166
O	46.49197387267745	11.695555391014404	0.9525510957688592
O	46.49927853635448	11.062468677849719	-0.3378267880264545
O	45.35840472760438	11.31061485597597	-1.1695547153264805
O	44.38662305337967	12.23418336695938	-0.7391699352525114
O	44.00351656931592	13.403386697552119	-1.415792270456218
O	44.129430525257455	14.63498249910528	-0.7150667713236079
O	44.3687807543103	14.752370900535977	0.6728908796818436
O	43.83520280970211	13.53554246939224	1.1514366479438198
O	44.29333854121931	12.287792403328705	0.6545390119702779
O	45.23198297749145	11.549772182964102	1.4717042513646321
O	47.73628047979659	12.537137286474085	1.322570880324509
O	47.49281474537166	15.62014318863228	2.9076204260817327
O	45.78867350060715	17.006078510020927	3.8340581643900453
O	45.438619383134515	14.377806743535798	3.566375859504199
O	49.37595608082562	13.060118078777782	-0.6634936957258244
O	48.787849876290935	15.187832052842479	0.33522883155123395
O	47.1451368642001	13.80316320780347	-1.2397230566095532
O	46.04537013454973	16.259278228788517	0.13401187432865935
O	44.53528855908959	17.054443288145436	1.3264670217941479
O	47.584474956977886	12.747163988630676	2.606037109009335
O	48.57805503944341	11.417149080102245	1.2446882133838404
