14

O	44.85597452115928	12.826111984956867	1.8042983319600685
O	45.928178195456205	13.257225979995878	2.5566903924382345
O	44.55167007029011	14.30127258502189	1.0593365552306038
O	45.07231873870015	15.435216833455364	2.2880361662381614
O	45.75718027388651	14.544072631664365	3.103574581055012
O	44.95951268797103	16.90009512202634	2.253214990538461
O	45.70483928481596	17.708605760820205	1.699877410144584
O	46.41829026659301	15.157119590753345	4.198605721969015
O	47.04285837412303	16.411353692104136	4.0942058759791715
O	46.587576477764564	17.479387706948245	4.974713181377616
O	46.20489256547544	18.628683468514744	4.684339355099983
O	43.980426544352994	17.459002893717617	3.045601979980674
O	46.76231288745662	17.42731006602298	6.33764308117144
O	46.892158639679074	11.848024412012013	3.4279061591464792
