69

O	2.6965748057176464	-4.910626901515687	6.248672158137254
O	3.5302616857176465	-4.167866101515687	5.367114248137255
O	2.6266481057176465	-3.692770281515686	4.265836338137255
O	1.5284149957176465	-4.425966061515687	3.8544545481372547
O	0.6940453657176466	-4.782012741515687	5.054184158137255
O	1.4202966757176465	-4.262711631515687	6.258691178137255
O	2.698598045717646	-2.5081470115156863	3.0171618381372545
O	1.5815697757176468	-3.1450219615156865	1.9396556381372547
O	1.2565452257176466	-4.330984471515687	2.4948499381372544
O	0.4012651257176465	-5.301412231515687	1.7856361381372545
O	1.0334831757176466	-6.310987051515687	1.3403716751372547
O	-0.7842247512823535	-5.627290821515687	2.4567658281372546
O	1.6408037557176465	-2.8748570215156866	0.5550507048372547
O	2.015085285717647	-1.5828732315156864	0.13798912013725467
O	1.6272461557176465	-1.1153025815156863	-1.1763015518627453
O	1.6451138457176466	0.14498777258431356	-1.3320609418627454
O	0.47079409571764663	-1.6418029115156865	-1.7080548618627454
O	2.8580073457176463	-1.0518952815156863	0.8819868711372547
O	-8.503486144282354	0.4775362704843136	8.270365728137255
O	-7.260791874282353	-2.0924056215156863	5.760739578137255
O	-4.104402354282353	-2.9754246615156865	7.722659518137255
O	-3.7764708142823533	-3.0456773315156864	11.554538738137255
O	-0.1575619512823534	-1.7928313115156864	11.294477338137254
O	-0.7162128928823535	1.0497062294843136	8.787904968137255
O	-2.3488566842823535	4.163382268484313	10.248754278137255
O	-2.274544104282353	7.899312468484313	9.581400688137254
O	-6.971970134282354	6.306820258484313	6.538492508137255
O	-5.2842308242823535	9.103640428484313	4.574134508137255
O	-4.231869754282354	6.746216148484313	1.3833946881372547
O	-4.945627614282354	3.007696528484314	1.5111546881372546
O	-6.931123844282354	1.2547433184843135	-1.2244193118627453
O	-3.5527074942823536	4.096048448484313	-8.289927021862745
O	-0.4331893412823534	1.9250283184843135	-8.159063531862746
O	-1.9531534242823534	-1.5110985315156864	-7.407230801862745
O	-4.467065484282354	-3.8712722315156864	-8.975300001862745
O	-7.765313894282354	-4.691805571515687	-7.248175671862746
O	-6.565876004282353	-8.304666671515687	-6.947663721862745
O	-2.9336287442823537	-9.152082731515687	-6.256786911862745
O	-1.5141459382823534	-12.516699551515687	-5.206764951862746
O	-5.062341574282353	-13.969660051515687	-5.064135821862745
O	-6.2412132542823535	-11.345721751515686	-2.554080701862745
O	-8.365475994282352	-8.202590321515688	-2.8919647318627453
O	-6.045070554282353	-5.304070551515687	-2.0822284618627456
O	-8.554626894282354	-2.6101385715156864	-2.9971711918627455
O	3.9179118457176463	-5.651342561515687	-7.907072141862745
O	3.247162775717647	-5.334769451515687	-4.187972431862746
O	6.563945465717646	-4.913830111515686	-2.3210954218627453
O	8.117613055717646	-4.7075712115156865	-5.772440821862745
O	9.486136905717647	-2.1837145915156864	-8.255577691862745
O	-2.8097758642823534	5.028959628484313	-3.2474321218627455
O	-1.7397661042823533	1.4421243684843137	-3.5410569018627456
O	-3.010700564282353	-1.1328647315156863	-1.0443355618627455
O	-1.5970924022823534	0.29348466978431353	2.1642742481372546
O	-0.6797839012823534	3.6550347284843134	0.7530518261372547
O	2.956453685717647	3.7174057884843137	1.8153684381372546
O	5.236288125717646	1.4288378484843136	-0.30062369986274534
O	4.5669145857176465	1.9720957184843135	-4.002398451862746
O	2.801322125717647	5.236810418484313	-3.0276204918627454
O	5.902441965717647	6.471137358484313	-1.1029817718627453
O	8.130075535717646	5.520206928484313	-4.056636061862745
O	7.893202815717647	10.076228428484313	6.842403068137255
O	2.9372998657176463	9.124987798484312	7.072386488137255
O	4.589026905717646	5.960771058484313	8.436640118137255
O	6.437004295717647	3.376327768484314	6.404526658137255
O	6.8970868957176465	5.324724328484313	3.149511888137255
O	8.894527685717646	3.0578826184843138	0.9085378151372547
O	8.555440975717646	-0.5084607535156865	2.122954828137255
O	11.646189305717646	-2.2969092615156863	0.8639083761372547
O	12.022031605717647	0.39845799348431354	-3.6894245718627454
