18

O	46.56068542146095	10.788720889287973	-0.44982483494349257
O	47.38496009859792	11.39708600615782	0.5372592089914816
O	46.47009256664244	12.282874735583949	1.3331500940952052
O	45.36851473551517	12.895362698226553	0.7636663186981005
O	44.546348702524476	11.862708789909881	0.04258242985384442
O	45.28398415976163	10.56237121225857	0.1564590548814646
O	46.52864553018283	13.092531946652537	2.8525986268422097
O	45.401611905353114	14.306117664705242	2.5854163250390565
O	45.083153336605825	14.152316856540128	1.2833724719450528
O	44.22179107521462	15.124644289430332	0.5841924387309811
O	44.850494404871114	15.872532003571202	-0.22980849016928495
O	43.04327754681635	14.580595066885419	0.05777580571118346
O	45.44693314837237	15.534288987461101	3.2805204664465544
O	45.815913966560956	15.523937051507264	4.639562458434026
O	45.41469991136005	16.618822051095023	5.4978488870776046
O	45.429892043652266	16.367444930904796	6.7426343148192265
O	44.25353139498753	17.279465041436584	5.162313399890159
O	46.66565868953707	14.657727495981147	4.910860721980633
