26

O	43.1361363273347	12.662301092197392	2.6829341507901896
O	43.84420515667929	11.609086226142741	3.3195350772420933
O	45.17652529636198	11.543909098615568	3.3123368794006374
O	45.6037644062797	12.859142073544188	3.142231234203457
O	44.63882194180281	13.796911264058089	2.7755701030495237
O	43.81734295069171	13.288096456579103	1.73751885299379
O	46.004174363796906	10.606236483965342	2.7048339016881995
O	47.307771393022676	10.999080116524212	2.6931540080555427
O	47.61370754259227	12.266374052530434	3.076450023348893
O	46.73023410946407	13.1195692881637	3.8479150450089747
O	46.94941202894235	14.607876755323026	3.7827039962644617
O	47.03064244113946	15.49677848988539	4.878817406535769
O	46.727393777712905	14.747403498529287	2.381098009695487
O	46.145398867176354	16.446440100545725	5.306449001425447
O	46.49366158129484	17.581673366783782	5.616468935446385
O	44.97219545313033	16.034754193411867	4.797997875241746
O	46.63214784534054	14.579523804849348	5.901366973217864
O	47.322471545910894	13.729673007233686	1.6012367156725098
O	46.81058085907741	13.163506859704828	0.4725007645288324
O	45.97203127073469	14.030995196079125	-0.008395312324626758
O	45.93258837847419	15.40228124587765	0.4516131607154916
O	46.085907705363965	15.764054700582097	1.8331863148110612
O	46.15121991929258	17.057111338402482	2.4698115994046113
O	45.12755066413997	17.768381525253133	2.518796345816231
O	47.23928552917014	17.813811869118517	2.8262717178852967
O	43.62642232154199	12.822490222724817	0.42993752850507594
