69

O	4.905310830752586	-2.545405420146342	-2.9686640172926824
O	4.124576230752585	-3.215688200146342	-1.5786863962926827
O	4.112525640752586	-2.1434757901463417	-0.7282124392926826
O	4.254907520752585	-0.9353841301463418	-1.3451441522926826
O	5.137652130752586	-0.9788457201463417	-2.4292711872926827
O	3.8794706907525853	-4.637288900146342	-1.3228209132926827
O	4.903000180752586	-5.280034860146342	-1.0289355662926827
O	2.6992088107525856	-5.219302330146342	-0.9433850732926827
O	5.7068697707525855	0.13291009485365823	-3.1106581172926826
O	6.2418084207525855	1.037975260853658	-2.2329672872926825
O	7.365577990752586	1.722881229853658	-2.6871146072926826
O	7.853215060752586	1.550014537853658	-3.9490399172926827
O	7.053726250752586	0.8600222438536582	-4.831525837292682
O	5.736186530752586	0.49198171885365816	-4.423687877292682
O	3.7183207907525855	-2.295417780146342	0.6163029227073173
O	2.5779013007525853	-3.084031720146342	0.8024246527073173
O	2.533667010752586	-3.960891100146342	1.9633042327073174
O	3.5818007507525857	-4.530616620146342	2.3069546827073175
O	1.3458239078525855	-4.599250320146342	2.2259368627073175
O	7.554695030752586	2.8468557798536582	-1.8440820212926827
O	6.517395980752585	3.795048179853658	-2.0329374792926824
O	7.054376200752586	4.677872119853658	-3.115009387292683
O	8.080792620752586	4.356188739853659	-3.9547428572926826
O	7.926460040752586	4.7079688898536585	-5.2959933872926825
O	7.428470470752586	6.002531219853658	-5.437857847292683
O	6.606984580752586	6.535037649853658	-4.442976687292683
O	6.107914150752586	5.587078079853658	-3.575667707292683
O	3.6608867007525854	0.7975423488536582	-0.8472065152926826
O	6.5644596407525855	11.276917809853659	6.259817932707318
O	2.1827370437525855	14.086066509853659	5.6201077927073175
O	-0.021562819247414433	-1.4608861801463418	-10.266487667292683
O	2.7934545207525856	0.8611268988536582	-9.008550907292683
O	4.031502410752585	4.027743819853658	-10.758248897292683
O	4.6020193507525855	5.677613559853658	-7.419519787292682
O	1.3982322849965856	4.750745879853658	-5.6023686972926825
O	-1.5966247392474144	6.792505209853658	-6.715656197292683
O	-4.851708999247414	7.956950829853658	-5.190539567292683
O	-6.587684499247414	3.104187949853658	-7.850819587292683
O	-8.617071489247415	3.370164849853658	-4.641707287292682
O	-7.000136869247414	0.06947482285365814	-2.8532012272926828
O	-4.182971009247415	-1.790629450146342	-4.627270747292682
O	-4.418000579247415	-5.543655570146342	-5.318286857292682
O	-6.938937419247414	-8.82155623014634	1.9054486127073171
O	-3.5885430492474146	-8.603586770146341	3.6809262227073174
O	-1.2404528492474143	-10.088453590146342	1.0347254027073172
O	6.4894454307525855	-11.70898589014634	-7.909984367292683
O	1.3402032166525857	-8.894002720146341	-6.174106917292683
O	5.401937210752585	-7.250179590146342	2.259619162707317
O	7.090539930752586	-4.392406520146342	4.0991755027073165
O	6.773320900752585	-6.586415900146342	7.2053083027073175
O	-6.053346269247414	-3.9995287001463415	0.17824350270731726
O	-2.6418004592474142	-5.5119083101463415	0.09489032270731723
O	-0.5432098192474144	-5.1138268101463416	-3.031622217292683
O	-0.04726197924741449	-1.3339270101463416	-3.1193551972926827
O	-2.8379079692474143	-0.6076056901463419	-0.6394769282926827
O	-0.7298573992474144	1.5808722098536583	1.6707710727073173
O	1.6704845477525856	-0.39148620014634183	3.9082371027073175
O	-0.05387396924741439	-3.361576640146342	5.455165902707318
O	-3.428682659247414	-1.7321995001463417	4.589707832707317
O	-2.425358389247414	1.4869867248536583	6.405406002707318
O	-1.3458108692474144	-0.5350779301463419	9.455512802707316
O	-4.101914049247414	8.288766589853658	0.6557111227073174
O	-0.3781535292474145	8.63888687985366	0.3834363827073173
O	2.3018835757525857	6.402823869853658	1.9753520327073173
O	0.08306672075258548	4.818415439853658	4.670610552707318
O	2.3817858847525857	2.681239459853658	6.738249982707318
O	5.491524390752586	1.857947829853658	4.6819997127073165
O	8.124944420752586	1.1873484688536582	7.382844992707318
O	4.909330200752586	-1.188890410146342	10.815934802707316
