44

O	46.47825195640549	14.403117682264075	6.235772698918828
O	45.52189820808205	16.702973025008014	3.6626387842090367
O	45.301904149952186	9.46896919667618	0.0010330993800966581
O	47.25340934932746	10.56766910492387	2.682439195213236
O	45.09966122279705	10.828269979861924	3.3096303171496886
O	47.57103462225147	11.519695392484813	3.645047266537322
O	45.531970238869356	11.555337459199235	4.397426946866473
O	46.443943630121225	12.770265872156394	0.408869113549466
O	44.3156962313224	12.992331822683989	1.092993771930991
O	46.82707463210119	13.660236399096434	1.3967328487290587
O	44.697168056135105	13.903269746735116	2.118566586128644
O	46.68525970399137	7.4466291066868315	-0.2123869043926554
O	47.112095364133936	9.136370292467703	-1.7326011977465265
O	43.01722488041838	8.460032756121358	-2.581900617959942
O	44.143570775427115	9.143602813476356	-2.1149900557347827
O	42.97172505403786	8.05025858646308	-3.8868408791607756
O	44.72950386879337	9.975564004728945	-3.0753342165294892
O	44.07293716929596	8.301219324637731	-4.699971614501983
O	44.81411253921903	9.427669320862606	-4.355351684513273
O	45.47394682944945	9.144249384535563	1.4354983513033117
O	45.925967280558105	10.347027119477023	2.295836466422601
O	46.6340744894632	12.343665373654932	4.35751215971745
O	47.318744566663874	13.162936290946899	5.3882474415368
O	45.134959167758005	14.30786972120898	5.8184277080767135
O	46.27776303660039	14.892173490581662	7.803573311900744
O	47.41356708946765	15.836167879193145	6.136203970102358
O	45.0699364786411	10.849448729052591	-0.14710059248919816
O	45.28470294275623	12.024201472201312	0.6991774433456088
O	46.00574094308425	14.179541364673693	2.443835395851484
O	46.57581246826141	15.356623170248039	3.113268272443195
O	44.32368580267117	16.003616881864065	3.61855526593708
O	46.66402731960957	17.576614377284805	4.353300005100388
O	44.80286399853122	17.10413288504199	5.223629267392501
O	46.477428087869114	8.77915709020316	-0.58770362235341
O	47.29040158693613	6.521297664415919	-1.0141974792804032
O	47.544234341339624	8.180987468646705	-2.6463741550254234
O	47.46797883088799	6.823244708975116	-2.3591191650888454
O	44.164090852189624	8.933672102118773	-0.7644053512617486
O	42.86600883360266	8.95415805134154	-0.4414053848006354
O	42.23301371202029	8.394494688319332	-1.4817324413272068
O	48.52867033775615	13.604219331595836	4.861273411305204
O	48.03802268616212	12.279563514626904	6.125953747082858
O	47.15365891765879	16.00727652557661	2.0801336688465337
O	47.927525889043814	15.317522781225522	3.3206961201642566
