14

O	45.20826334313894	11.955612016521021	2.829736830583795
O	45.30372764000631	10.84944316905344	1.9807648368488833
O	44.75677672377399	11.05597488229942	0.7531871823911152
O	44.956283844107276	12.309457860093367	0.2644922912000167
O	45.12797755240785	13.400818932515406	1.1215468653650849
O	45.313814215854215	13.287153517238366	2.49708990555188
O	45.86609643392237	14.327787638239336	3.3119395632040813
O	45.81158296745276	14.690966700545488	5.008846431338867
O	46.727840710559256	16.26299783707154	5.2651508621845196
O	47.02518665165823	16.13165309419496	4.000706591899073
O	45.86799896653099	15.7722536285032	3.0546168507137423
O	48.05585061722027	15.977565842382038	3.2510316420438534
O	44.91280551886759	15.467973131205515	5.652828275400129
O	46.659782146956736	13.820879351444761	5.675827325136152
