71

O	-5.8966331012861115	3.7356204303333334	-8.354434077705555
O	-4.729642881286111	-0.3285143596666664	-6.136320997705555
O	-5.675133461286111	0.8601504303333336	-4.495500767705556
O	-2.707147704286111	4.602413010333334	-3.1752643877055555
O	-5.940180681286112	3.9846485503333335	-7.012036097705556
O	-3.4034730412861114	5.324067130333333	0.34832779229444455
O	-6.176109251286111	2.9353302903333334	-6.170347947705555
O	-1.3381654712861113	4.655141470333334	0.5434192322944447
O	-6.089887871286111	1.6404765653333335	-6.572258237705556
O	-2.787568561286111	2.3000407235633333	-0.0909368577055556
O	-6.057017061286111	1.3797469523333334	-7.9236877277055555
O	-3.3535984112861112	3.3615369803333337	3.234849252294444
O	-5.903100591286111	2.4366067243333336	-8.768209797705556
O	-1.5542752762861112	2.3174314782333334	2.543548382294445
O	-5.915952081286111	0.4568520603333335	-5.683022707705556
O	-3.561660951286111	0.5224252203333335	-6.221112197705556
O	-3.158132492286111	1.1929314503333335	-7.373604377705556
O	-2.935733338286111	2.5780264823333336	-7.317915857705556
O	-2.797193419286111	3.2651642173333335	-6.142855437705555
O	-3.069028257286111	2.6021597313333333	-5.007211647705555
O	-3.538066481286111	1.3251304323333335	-5.116304257705556
O	-3.2130459942861114	3.0509608573333336	-3.6497358277055554
O	-2.8968399202861113	2.3007988645433337	-2.5077398206055554
O	-2.8754379352861115	2.9728528073333336	-1.3320873477055555
O	-2.583156448286111	4.322554910333333	-1.4914611177055555
O	-2.323569261886111	5.188219710333334	-0.31640931770555536
O	-3.557360111286111	2.6659135263333336	1.0153872822944443
O	-2.921200016286111	2.5724141583333333	2.3321230022944444
O	-5.189637641286112	-0.8968707996666665	-7.328246397705556
O	-4.218670771286111	-1.2537150796666663	-8.397340627705555
O	-3.395322261286111	-2.4307242296666662	-7.876946147705555
O	-4.329503941286111	-3.6234175296666664	-7.723822697705556
O	-5.372921661286111	-3.196593749666666	-6.728289187705556
O	-6.187195251286111	-2.016982389666666	-7.278420607705556
O	-2.773208618286111	0.42324489033333346	-2.6977575107055554
O	-8.86691888128611	-11.027047259666666	-2.7525602357055554
O	-4.882900301286112	-14.402575859666667	-2.5903392573055557
O	5.4742731387138885	4.762850250333333	-6.750081777705555
O	2.372290048713889	2.9097263623333336	-8.066587217705555
O	2.4434799187138885	0.9852191803333334	-11.433561407705556
O	0.23844156871388877	-1.7171281196666661	-9.934888287705556
O	1.813659308713889	-2.122786809666666	-6.524992697705556
O	4.9020973187138885	-4.284766909666667	-7.040289087705556
O	6.821759188713889	-6.716597509666666	-4.989817847705556
O	9.88185714871389	-1.839963759666666	-4.018330857705555
O	7.831408648713889	-1.1665773196666667	1.4282428722944447
O	6.36444878871389	1.8621569223333334	-0.37441630770555534
O	7.0038432287138885	5.407015420333334	0.8617815922944447
O	1.7982729387138892	4.978238710333334	8.864569002294445
O	1.178001058713889	7.886174970333334	6.443828052294444
O	-0.7278632812861112	14.734276240333333	-3.1049428767055556
O	2.713381818713889	10.216683540333333	-0.7551605477055554
O	-5.2236724112861115	6.587291890333333	3.2455876522944442
O	-7.686367351286112	3.7560585903333337	2.509840572294445
O	-8.962940871286111	4.464891780333334	6.054601702294445
O	5.630974848713889	1.5469368403333337	5.203563672294445
O	2.7673487687138887	3.7893301703333337	4.300443612294444
O	2.551120108713889	5.162101650333334	0.7745289222944445
O	2.1237196487138887	1.9134793043333336	-1.2133204477055555
O	3.175176758713889	-0.36598411966666644	1.6306265322944449
O	0.09666343871388872	-2.634116849666666	1.4676353822944446
O	-3.0339989252861113	-1.1197356296666663	3.0486469022944447
O	-2.268087886986111	0.5322816403333335	6.333186862294445
O	1.0295342687138889	-1.4531054896666666	6.422310512294445
O	0.2010923687138888	-8.303373359666667	-2.9567185927055553
O	-2.835361556286111	-6.349340949666667	-1.8182621387055555
O	-2.2147241902861112	-6.458595899666667	1.978539402294445
O	-5.181176251286111	-4.734644039666666	3.5333267822944445
O	-6.782819681286112	-2.4557647196666665	0.8512230322944445
O	-10.41146631128611	-2.2193631596666665	2.1401343122944447
O	-9.33454643128611	-2.123245699666666	7.2316522122944455
