76

O	3.132416664117647	-1.7078639984411765	0.6182246392647053
O	3.837579234117647	-1.6358809084411765	4.801271029264705
O	4.569916854117647	-0.3385469274411764	4.804317559264705
O	3.8860907941176466	-1.0621763384411764	-0.4604369407352946
O	5.482058994117647	-0.4951176114411764	3.648654469264705
O	3.448241464117647	-1.8416017384411765	-1.6759266007352944
O	2.553437424117647	-0.0703986094411764	9.364605999264706
O	2.054856910117647	-1.5052225584411765	-1.8346140407352949
O	0.974431245117647	-1.0307192684411766	7.992035659264705
O	1.518468365117647	-1.6482647184411765	-0.22523121073529495
O	1.106725957117647	-4.222631368441177	6.1182575592647055
O	0.691823135117647	-0.6168784804411764	0.34052327926470527
O	6.202919604117647	-1.6297002684411765	6.4196204492647055
O	1.014955667117647	-2.9599212184411767	0.19605850926470536
O	5.584410174117647	-0.3913460364411764	6.249483739264705
O	5.644603944117647	0.5418217655588236	7.2975264992647055
O	4.097870804117647	-2.3780013584411765	-2.5963268507352946
O	5.7183710841176465	-0.09470841644117639	8.538869199264704
O	2.853981184117647	-1.0744227184411765	1.887807766264705
O	2.974323744117647	-0.8997858904411764	7.177518119264706
O	2.862993154117647	0.3191792935588236	1.9339405182647051
O	2.5393071441176467	0.8117308895588236	3.161957863264705
O	2.5972544141176472	0.8424455195588236	8.469597479264705
O	1.877677827117647	0.055385487058823596	4.156044769264705
O	1.101669186117647	-0.9184991214411764	3.584864859264705
O	1.716652119117647	-1.5693268084411764	2.549136049264705
O	-0.2880359558823531	-4.286567108441177	6.153591159264705
O	-0.887931015882353	-3.1096648784411767	5.699805679264705
O	-0.39253121588235307	-1.9591800884411765	6.317464829264705
O	0.875274468117647	-1.9479248584411766	6.7915784992647055
O	1.553775826117647	0.9224084055588236	5.332961149264705
O	2.878877984117647	1.1835482415588234	5.959699669264705
O	2.4212096141176467	-1.3112817984411764	8.487773539264705
O	5.837236974117647	-2.2775943484411765	7.594416089264705
O	2.818938764117647	0.3668898095588236	7.164953369264705
O	5.772487334117646	-1.4468433284411766	8.715931819264705
O	1.641310793117647	-3.0719920984411764	6.647596659264705
O	5.7676019041176465	0.8015027695588236	9.704369739264704
O	3.8713375341176466	1.1779831215588235	4.989145619264705
O	5.350671024117647	0.1023463015588236	10.796288279264706
O	7.086929134117646	1.1521350915588235	9.684739869264705
O	5.099544334117647	1.9871514415588234	9.665127489264705
O	-6.674790875882354	-11.095518148441176	6.727791459264704
O	-11.382331975882352	-9.257657888441175	5.459762689264705
O	-9.235062575882353	9.854732901558824	5.448794419264705
O	-2.1963751058823533	10.471107651558825	2.724696490264705
O	1.137458344117647	8.884751681558825	1.955433791264705
O	0.796230838117647	6.262866361558824	4.730482149264706
O	-0.829350715882353	6.6029967215588234	8.118747639264706
O	-2.3388681058823533	3.1492917215588236	8.073543289264705
O	-3.3570440258823533	2.9132774315588237	4.482908229264705
O	-6.623490295882354	4.643655401558823	4.079145889264705
O	-6.556372405882353	8.299656551558824	-1.057158120735295
O	-1.477378205882353	5.4253842915588235	-3.5488333407352948
O	1.523420315117647	6.812811061558824	-5.440031990735294
O	6.430403564117647	0.7935647985588236	-8.555815290735294
O	13.034786024117647	6.321148941558824	-0.3785441607352946
O	10.646084134117647	8.193087161558825	-2.706848690735295
O	7.562654744117647	5.9325046615588235	-2.7463936907352946
O	7.9458301741176465	-3.4887406284411764	-2.9312752907352952
O	6.503428024117647	-6.228958868441176	-0.6423615507352949
O	7.882534084117647	-8.579175478441176	-3.341523470735295
O	2.0332340241176468	1.2558851815588234	-6.499259230735294
O	3.207982894117647	3.0370852815588236	-3.328915340735295
O	0.29940224411764693	2.4082066115588234	-1.1013184907352946
O	-2.071509035882353	1.0635231315588234	-3.729880190735295
O	-2.822316335882353	-2.2718560084411763	-1.9811783507352945
O	0.09617496411764703	-4.869712608441176	-2.201462480735295
O	1.434574251117647	-4.970198408441177	-5.687741340735295
O	-8.008834395882353	-2.5190842284411765	2.9184995582647053
O	-4.938740705882354	-4.674550558441177	2.7423083182647052
O	-5.023183535882353	-5.901754228441177	-0.7746958107352948
O	-2.116134905882353	-8.254908608441175	-1.1166338107352947
O	0.506283232117647	-7.3852767884411765	1.5040137732647052
O	2.402902584117647	-10.711896148441175	1.906756459264705
O	2.2083987641176472	-12.116248948441175	-3.103013510735295
