77

O	3.5655642948222237	-0.3758194310000005	-6.538091290822222
O	2.858207674822223	0.44997753999999957	-4.008597860822222
O	4.145324874822223	0.6580056651999996	-5.863208400822222
O	2.409982694822223	-0.8128487990000005	-5.890915040822223
O	2.4072536848222232	-0.7201600490000005	-4.503451830822222
O	3.843227334822223	1.1799175319999997	-4.665970490822222
O	5.350248664822224	1.1614144549999996	-6.586399210822222
O	1.5276133698222232	-1.7205057690000007	-4.108400230822222
O	6.264625594822223	0.5922109969999996	-5.494796900822222
O	6.150449964822224	1.3824478729999996	-4.421003840822222
O	6.747028934822223	-0.5983721590000005	-6.0188804408222225
O	4.9019563348222235	2.1513317009999997	-4.2497135308222225
O	7.248751894822224	1.9412396809999994	-3.741624070822222
O	8.386750864822224	1.5416800509999997	-4.025511710822222
O	6.838458074822223	2.7302012709999994	-2.5768045708222225
O	5.432000714822223	2.2452000909999996	-2.056643591822222
O	6.009833424822223	-1.3902996290000003	-6.692763170822222
O	8.031885224822224	-1.0809977090000005	-5.754453070822223
O	8.656024724822222	-2.1958206990000004	-6.424553210822222
O	0.5291191268222233	-2.1902291790000006	-3.2234867908222222
O	5.626903874822223	0.7581873069999996	-1.8351899318222222
O	7.090269574822224	-1.2637294290000005	-2.7246161308222225
O	4.955625764822224	-0.4184238370000004	-2.2644971058222225
O	6.987608024822223	0.6718553892999996	-1.4540955938222222
O	7.576241774822224	-0.5302474990000005	-1.6964617528222223
O	5.697358194822224	-1.4022182290000003	-2.9128658708222224
O	5.2455438148222235	-2.4372083790000008	-3.7716691108222222
O	6.1562503048222235	-3.2367356090000006	-4.218586800822222
O	4.335896894822223	-2.8840530990000004	-4.664772660822223
O	1.8089480238222233	-0.9972372590000004	-1.7317243658222223
O	2.4904409448222236	-3.3149889990000005	-2.4136649798222223
O	-0.05393955517777682	-2.8775933590000005	-2.7441699908222223
O	11.645109164822223	-0.42234333900000054	6.324739109177778
O	9.683611694822222	3.1145140009999994	9.591854049177778
O	8.475518714822224	6.682781481	10.108392749177778
O	-0.8575181651777768	15.042964961	-1.3916787068222223
O	-2.954397665177776	6.798068911	-8.388032200822222
O	0.8437891588222233	6.292748151	-7.601500910822223
O	3.523641724822223	9.003960050999998	-7.4793473708222225
O	5.301212274822223	7.306056431	-4.620247140822222
O	2.232967420822223	6.485858821	-2.4478290748222222
O	0.8334347508222233	9.371841641	-0.4788441508222223
O	-0.9317449351777769	9.807010260999999	2.8125522391777773
O	0.8830970648222233	11.639851161	5.634864039177778
O	-5.364138345177777	9.484747970999999	-0.9332345648222222
O	-6.468863535177777	7.820574881	2.3040125391777777
O	-6.894549815177776	4.074297461	0.7592869691777779
O	-5.9205863151777764	3.5123295509999997	-2.8756821708222224
O	-8.378034425177777	1.9171416109999995	-5.338812130822222
O	-11.216804235177777	-4.746318539	-1.4086144498222222
O	-3.873798615177776	-3.1954803890000005	-16.09365565082222
O	-5.765888245177776	-1.1464860390000005	-10.702337580822222
O	-0.4463378951777768	-7.906866369	-6.276421330822222
O	2.8541538548222234	-8.131841129000001	-4.216682260822222
O	1.6145368638222233	-11.615360039	-3.3173599408222225
O	-8.034443795177777	-0.8709453190000004	-0.15162671082222223
O	-6.036572745177777	-2.6784377990000006	-2.7915422108222225
O	-4.558864215177777	-0.7397056690000005	-5.610551460822222
O	-2.1934829351777765	1.5033602959999994	-3.6541633008222223
O	-3.662695275177777	0.8299318779999996	-0.22291140082222216
O	-0.25108805517777677	-0.2968438800000004	1.2659257091777776
O	0.7500982808222233	-3.889235789	0.7023098691777778
O	-2.185699585177777	-6.2545987190000005	0.6176099091777778
O	-3.9584447751777763	-3.5869377790000008	2.5377842291777775
O	-1.3065408051777767	-3.3413833890000006	5.256475719177778
O	-1.3665546251777767	-7.149157219	5.571650409177778
O	0.6089772578222233	5.3555033409999995	6.3227086991777774
O	3.804477454822223	4.658376501	4.488825499177778
O	4.906618494822223	1.3143605149999997	2.8479858391777775
O	2.4744407048222232	-0.9017706490000005	4.762294869177778
O	3.2690449248222233	-4.437288249	3.917775369177778
O	5.1749118448222236	-4.624792509	0.9993473491777776
O	7.111025374822224	-7.913947209000001	0.9684404591777778
O	6.328017964822224	-12.931647539000002	2.418431329177778
O	3.3681524848222235	-10.650086739	3.185998939177778
O	4.983003884822224	-10.102328839	6.642393809177777
O	1.9572076438222232	-14.482476739	5.9594150191777775
