39

O	44.404723724346226	9.309834028685053	0.9914247769884259
O	45.4385897173882	9.69690862833598	1.795148307378584
O	45.648567691624656	10.930004894418644	2.168164100957941
O	44.664126373637814	11.869016065737092	2.2907610914728274
O	43.6002979109597	11.52147491768104	1.6577297703842406
O	43.49670369249674	10.355719894437312	0.8770404279331707
O	46.87898461332952	11.247997742736748	2.5521804463817794
O	47.02413753712714	12.274990131868027	3.4422287785960095
O	46.26785569638826	13.338740425507835	3.0467025713666103
O	44.94374733977982	13.08038178722034	2.8610166622432494
O	44.76032590173446	14.486462381891776	2.5653806374333366
O	45.31358682772895	15.480605830960245	3.5547773743571223
O	44.43171339763718	14.505410578349174	1.2104050460067732
O	46.46078086797874	15.579084454637929	2.937099100492505
O	45.42170248455934	15.639524003273836	4.922796106315635
O	46.57484012294109	15.943379309883786	5.444810450008145
O	44.80060158360605	16.648852445359264	5.737117478518177
O	44.61033226801428	15.430426566563828	0.2356415534818188
O	44.85215494584435	14.94688345476091	-1.0551617558094968
O	44.40985478291073	13.688254235107497	-1.4736595675470952
O	43.446521625818775	13.170229639266246	-0.7360922446195994
O	43.63509485292745	13.535052874511532	0.5689548849416335
O	45.15248137362826	16.7151059186846	0.7179550101247258
O	44.252619350681044	17.52610273242005	1.001790659194823
O	46.37272631071887	16.967889065396953	0.1586666944774091
O	47.66553306349983	11.95519425114475	1.6143643521315614
O	46.558808486833286	12.882296247911322	0.9638547813972815
O	47.27023075072055	13.454906313586228	0.23902975337741683
O	45.96001810089646	11.815546477011852	0.25508260023894813
O	47.86373395644555	14.171305384974092	-0.3791316901389168
O	47.835804621567085	12.280261421433227	0.7720939747391453
O	48.548807727104304	11.21528900140459	0.36307437253491326
O	48.17448084652103	9.886262967838162	-0.10840081864865958
O	47.59580352540515	8.797488747147378	0.6149362459948922
O	48.42587930104363	8.198304844391195	1.6885640022657915
O	47.83649204849495	6.875718372357618	2.0648954886173176
O	46.0182046819475	11.565663330587853	-0.9192799435831054
O	45.21161033212755	10.657732681647591	-1.6241783403595802
O	46.69929150004827	12.339746452060394	-1.6114315039112448
