18

O	45.96851916973535	9.872500494185143	0.09157671779170773
O	47.12647550661187	10.871532930977269	0.955148868186857
O	46.49825635461978	12.121974559081234	1.4707490035289439
O	45.42047293219862	12.727674366817542	0.8250546507575569
O	44.35453164442797	11.791651731911784	0.45221673363102166
O	44.507027163536755	10.425661350383713	1.1163318273177154
O	46.0452681714575	12.69096377908319	3.060128126376544
O	45.62874707640298	14.279508766841069	2.5461013517424647
O	45.14668299460059	14.010214539753138	1.3053070059154752
O	44.3122539737327	15.046239765123367	0.6358218390096457
O	43.1599971935089	14.631130054262218	0.29480709997581744
O	45.00264273196779	15.701762562617024	-0.3949195778754655
O	45.700517397516286	15.544313373998385	3.2168363114141316
O	45.837101387813775	15.487572777814158	4.606772017780129
O	45.415334440892586	16.582309998181383	5.454100694525701
O	45.46985812083369	16.414622406929666	6.703344433594248
O	44.26632882729177	17.24195335313558	5.075494737623593
O	46.31864123448962	14.438224875316983	5.056229817927279
