54

O	43.857537076809024	15.494952763615144	-4.385526217001128
O	47.73866343539207	12.01755330470284	-3.0351575831794806
O	37.83026353554694	10.189251179459335	-1.92696504422869
O	37.96199585862524	8.988545632230425	-2.316900030132655
O	36.933585851596796	12.32895629964937	-2.307570162993362
O	38.207341907989374	13.075621416276565	-2.0478285884656833
O	38.113416243174385	14.272298903320914	-2.951427671929925
O	37.53240371638767	14.011408697746237	-4.057383037216193
O	39.364238877245036	14.82988794697684	-3.0735034984708625
O	38.67981982948113	10.052791980140462	-4.4088399212528655
O	38.094236048415844	9.091418766053991	-4.932883543546805
O	39.85188591700508	10.825896168510646	-4.7446656029968866
O	39.93656166901539	12.188174132881167	-4.743958608587099
O	40.75786542534266	10.360835566213618	-5.563896088636651
O	40.793523664526184	12.990567432938395	-5.437637008734835
O	41.90141718134572	11.068110857966069	-5.970211845647058
O	42.01465452705478	12.417018685280217	-5.663594910702927
O	37.646112461975044	10.882222924582228	-3.9595840240853883
O	36.842502865429395	10.906248385920264	-2.847317157928612
O	39.088255841765644	10.82778438397818	-1.927685937338846
O	40.302636122347636	10.67725633542954	-1.4719402712276404
O	41.4559556468992	9.973500260159831	-1.9123162698120764
O	42.15577284920638	9.656616416387202	-0.8739856286068788
O	40.75314739055065	11.642651992521452	-0.4705320224320868
O	42.03405062710973	12.11616813321337	-1.1924156958545122
O	42.91777240930094	12.691501888829785	-0.37167743881769155
O	43.43753249583072	13.913311572270754	-0.6394177673460559
O	41.62976971980914	12.834415715925523	-2.2556467026792584
O	42.342393524561565	13.88237106057698	-2.665714253939841
O	43.356444085622456	14.403376071692119	-1.9113861403527057
O	44.34940348683041	15.198731662279146	-2.6492113239837254
O	44.51714675315492	16.813642488068073	-4.777282546581188
O	42.22153459392593	15.694595665567032	-4.570855914580373
O	44.55848018366315	14.352768442687488	-5.423014610027935
O	42.28697624101147	10.021044593615997	-2.955794591353585
O	42.49482381615309	8.751566700720643	-3.5770014185039036
O	43.67858101511181	8.95227820276849	-4.367644890676215
O	44.616276878561905	9.803607112691365	-3.549726640297714
O	44.096495200628226	11.121859181638479	-3.508672482837153
O	44.92199168940986	11.878716298447705	-2.754045049161884
O	44.660418877612386	9.492243333178882	-2.1851567778038135
O	45.136279264924745	10.35203622619642	-1.1660475136591044
O	45.62537882796133	11.54173138143945	-1.6258138079590188
O	46.954910718450435	12.19585617518136	-1.4311553850454724
O	48.93002597137004	12.75409632113651	-3.435833026906449
O	48.00318307484467	10.32291420122619	-3.2032001667424
O	46.56378886169238	12.303628114595732	-4.264779548550989
O	41.43183286972019	7.81560765794059	-3.6685207939655493
O	40.59280813330322	7.433733821005411	-4.486115082123583
O	40.7461500655292	7.8511068089697575	-2.3723319967555208
O	44.52503973391084	16.350415212887054	-1.9382371376688825
O	45.63736353677885	14.787966323811752	-2.820797243991751
O	46.98361872550901	13.366651721269902	-0.7545306667082725
O	47.65714059235624	11.344565293875862	-0.5884080313773588
