14

O	46.41921975230477	11.839101656394888	-0.897009447307048
O	46.85572211066684	13.416869424375044	2.394025538820785
O	47.124779644947935	12.727363776249865	1.2445390759556494
O	46.20157240533982	12.85141163943645	0.2046244248628719
O	44.90013355611909	12.923851073703831	0.6202709351565234
O	44.60659425629671	13.379375125172453	1.886103898196274
O	45.62634161733174	13.943306210810194	2.577604322456438
O	45.480158850319675	16.431938212683328	6.617236872071796
O	45.4054307880162	16.53251766324234	5.354893281492926
O	46.051198109876346	10.650674508841416	-0.1276896818935045
O	44.2717368868419	17.202313529633987	4.950351563735379
O	45.77365933953446	15.361078676807873	4.5903853620763675
O	46.81395627035132	14.727382726006477	4.814304133550838
O	45.34976112867089	15.18782964418077	3.2585927466336093
