34

O	50.31073171755425	5.553979511233757	1.9704377626233072
O	49.58683088782429	4.3641554638673945	1.881686632485719
O	48.19701887613073	4.491283726064218	1.8388377617910896
O	47.65884886069507	5.701308853793316	2.1714898105716136
O	48.4377710774988	6.557806873391377	2.909942085493493
O	49.69586718947176	6.747904730911999	2.3661452921334725
O	47.726736039039174	7.730535362632809	3.205866250292663
O	47.491315658835305	8.893456620693254	2.076329380877814
O	46.80643070226798	10.059673192814676	2.5436400866717994
O	46.62275216923579	8.245626237121101	1.056720702512945
O	49.075714977541686	9.023652396124149	1.2467374620993406
O	49.05780572170724	8.20708375406274	-0.009854033749133073
O	48.97750754167095	10.2849702102857	0.5906771244346833
O	48.00982592135054	10.557914411179699	-0.514016315610589
O	48.082870300409546	11.985735984017547	-0.6546947839828201
O	47.33108071750992	12.480157237813074	0.44113961704967064
O	46.01506717620135	12.215589465930265	0.2789632022845101
O	45.63796969938612	10.984245539659081	-0.12140382586906995
O	46.656309833636975	10.271739697650043	-0.7354687493088425
O	45.24044523441837	13.184725309626181	1.0586260390940012
O	45.711579018419656	13.912053678674472	2.2164619776052064
O	45.03640722679627	15.019351731077675	2.8413110091327076
O	46.74195462506035	13.44467520289952	2.7331331980262865
O	44.324846561322296	14.966356538487613	3.8918436336115336
O	45.14780274028759	16.357029599651753	2.4112049346497892
O	49.79650579862007	7.359885349183648	-0.7183167895955869
O	48.83981211827862	6.372853685446783	-0.8709199016743572
O	47.76760699437179	7.073691257740303	-1.3438858898467574
O	47.88176921827305	8.137681256352742	-0.6445002520713228
O	49.02559759441776	5.100269550621739	-1.3487627882361357
O	48.152484503931824	4.511247626027703	-2.2566575189725695
O	47.10668324576424	5.263622607646607	-2.778427146399257
O	46.82666436555279	6.488675178101598	-2.1839553631885567
O	50.059152172145104	3.343059659082389	1.1016889072592866
