20

O	45.75550228840513	16.586531666874837	4.279117482893503
O	46.36402189484879	15.010216231063174	4.04926638620204
O	42.60697565157651	14.026131313339166	-1.5407944161517513
O	46.04323505658439	13.974803361069208	3.0733802537398818
O	44.570234241722765	14.973084999153858	-1.265951146463185
O	47.17628569878279	13.426776806318095	2.3948901289676927
O	47.156782921034726	12.39212265480549	1.4434866294895947
O	45.95531892673719	11.981976219335817	0.9822017401899368
O	45.518555052815515	12.204528404079625	-0.3312371724448271
O	44.236138336551505	12.542646675461041	-0.6597060445197371
O	43.357744748677305	12.18859704357002	0.34073957757039697
O	43.7741845721136	11.542495313484817	1.5154783088694366
O	45.041750398918694	11.885291424812486	1.9810829022857197
O	45.18831741228756	12.83953916233109	3.043949972353421
O	43.84765990040249	13.768258818121424	-1.414914665835747
O	45.685330469761276	16.85714539463827	2.852263473401005
O	44.672298040048325	17.521843392929476	4.984465449221477
O	46.67138709676425	17.404929450754736	5.409240380365096
O	46.47330036114289	14.424400442102357	5.283831826765007
O	47.72406727402282	15.294267445263115	3.890411175598753
