74

O	8.567373995847825	2.6064763937391304	1.481212074326087
O	5.843992185847825	1.2910777767391304	3.206705864326087
O	5.355568745847825	6.00972294973913	3.401231664326087
O	5.0633490758478255	0.06657452973913047	3.061526044326087
O	6.5617768558478256	3.57935848973913	2.965621704326087
O	6.477667275847826	6.47820806973913	1.524135224326087
O	1.5645523238478258	1.4677445967391305	1.504830884326087
O	2.257689885847826	2.3038674205391305	-0.08527904867391298
O	8.204966875847825	3.9349092097391303	1.235255404326087
O	3.678153205847826	3.1864825057391304	1.848049794326087
O	1.438901077847826	3.9615177897391307	0.470932835326087
O	7.346803365847825	1.8967255957391305	1.411053764326087
O	2.832511165847826	1.9850179757391304	-0.602323688673913
O	6.517172155847826	2.2746338249391305	2.474329324326087
O	4.366483425847826	0.19096763973913067	1.338855974326087
O	7.231013565847825	4.419421209739131	2.142731034326087
O	4.801272155847826	-1.2513837502608696	3.358079024326087
O	7.595403395847826	5.8758964397391305	2.255413044326087
O	3.361629585847826	0.7972475697391304	3.841218944326087
O	5.225546595847826	6.18256142973913	2.174255774326087
O	4.229422325847826	7.264567859739131	1.805718804326087
O	4.351504385847826	7.51397735973913	0.283714721326087
O	4.487803675847826	6.10707143973913	-0.19561876867391295
O	5.020213175847825	3.4770940797391305	-0.24860450467391296
O	5.524939365847826	5.67052377973913	-0.941699455673913
O	3.8232956458478258	5.16830298973913	0.595027784326087
O	4.209457835847826	3.8762320597391304	0.7602878123260871
O	5.889078305847826	4.368704149739131	-0.767197085673913
O	-3.4967849941521743	11.99800125973913	2.792714424326087
O	-5.701147304152174	11.95705476973913	-1.733643735673913
O	-5.641760304152174	11.87848392973913	-5.511418405673913
O	4.706755775847825	2.0403909467391306	-14.722326815673913
O	9.385013845847826	-0.17393923026086933	-5.125893085673913
O	10.446844245847826	2.9072713547391302	-7.071623205673913
O	7.769464985847826	5.0357714997391305	-5.497961185673913
O	4.815336855847826	2.5240837457391305	-5.719725155673913
O	3.132789825847826	2.5155859467391304	-8.989612815673913
O	-0.33383096415217406	1.8640567557391305	-10.283390715673914
O	-2.177827994152174	4.84746762973913	-11.788001215673914
O	2.219263315847826	-3.3769316902608693	-10.751497715673914
O	-1.430772204152174	-3.8907482502608697	-9.859218715673913
O	-0.6698860541521742	-5.53785338026087	-6.212884775673913
O	2.905537625847826	-5.68625290026087	-4.872280985673913
O	4.362379315847826	-9.08142549026087	-3.790440855673913
O	-1.5668298241521739	-12.46505229026087	0.927179031326087
O	14.523708435847826	-9.06548769026087	3.8636812243260867
O	9.451029625847825	-8.71438289026087	0.638502880326087
O	4.624335255847826	-4.89201960026087	8.048381694326087
O	3.487135655847826	-1.2680374802608694	8.959222654326087
O	-1.1277228641521742	-8.08687929026087	-1.830507365673913
O	1.400628976847826	-7.54186098026087	0.8335420433260871
O	4.837003225847826	-6.40837288026087	-0.135754646673913
O	4.073185145847826	-2.9170458002608695	-1.650702945673913
O	0.3462535528478259	-3.6179347802608697	-2.023052185673913
O	-0.6094890841521742	-0.3376259702608695	-0.20072006467391298
O	-0.5396766841521742	-0.5999224802608696	3.597761764326087
O	-1.7882744741521739	-3.8814329502608698	4.897023874326087
O	-3.444930214152174	-4.28392761026087	1.528311624326087
O	-5.165169494152175	-0.9312197302608696	1.840722894326087
O	-6.426644184152175	-1.8967405902608694	5.334589904326087
O	-6.9915047341521745	6.139586859739131	-3.171405985673913
O	-3.921335734152174	3.31269879973913	-5.939645695673913
O	-1.5859743041521739	5.563784719739131	-4.112034965673913
O	-0.7832017741521741	5.274971479739131	-0.427573947673913
O	-3.5288935541521744	2.9780754597391303	0.714276185326087
O	-3.2369266141521744	2.6140370147391305	4.446187514326087
O	0.32164191684782584	3.4487752897391304	5.432145154326087
O	-0.00805922215217414	4.436490279739131	9.122566404326086
O	-2.446573254152174	6.240859979739131	11.399224884326086
O	-2.720867984152174	3.0270896657391306	13.448884584326088
O	-3.737582574152174	1.0076967597391304	10.369201984326088
O	-6.501726974152175	3.6233696997391305	9.873810494326086
O	-7.4938684541521745	-0.4247175002608694	13.220496684326086
O	-9.731045764152174	-0.15579239026086933	10.132889284326087
