59

O	2.705925850342857	-3.602160401685715	0.3875306926571425
O	5.034411600342857	-4.511779351685715	-2.6495854013428572
O	4.363860140342857	-3.1933641016857153	0.8444337386571423
O	4.461090980342857	-1.932366231685715	-3.3125173313428573
O	5.744324180342857	-1.7192065816857154	-3.9239114313428574
O	6.7097410003428575	-1.011087287685715	-3.1355724513428576
O	6.397823710342857	-0.6876049806857152	-1.8011676113428576
O	7.109802990342857	-1.1023590896857152	-0.6642026493428574
O	6.391557380342857	-1.823730791685715	0.3294999616571425
O	4.983950800342857	-1.9389540016857154	0.3830007816571425
O	4.5825795403428575	-0.7665428626857151	-0.2942998450428575
O	5.026177970342857	-0.4935337936857152	-1.6142855713428577
O	4.103225290342857	-0.7619381466857151	-2.6957677513428573
O	3.934485840342857	-3.3868517916857153	-3.2873689213428574
O	2.373612476342857	-4.752327941685715	-0.4988689223428575
O	1.657642509842857	-4.035512021685715	1.6590844886571425
O	1.9823269983428573	-2.299252521685715	-0.3364072080428575
O	5.6985214703428575	-5.236199241685715	-3.8994063313428575
O	4.767888660342857	-5.844105521685715	-1.7465350213428577
O	6.542767400342857	-3.885230871685715	-2.0765393613428573
O	5.301586440342858	-4.218340211685716	0.6579886616571424
O	4.3010857903428565	-3.300396461685715	2.2362664686571425
O	2.6785622433428573	-3.244395421685715	-2.9456032213428576
O	3.913938330342857	-3.455926011685715	-4.6887362013428575
O	2.9317838503428573	10.079664088314285	-0.7525620023428575
O	4.3704214703428566	7.112139808314285	1.1207110586571425
O	5.419725000342857	5.261291638314285	-2.0417973113428576
O	6.679882610342857	6.772172808314285	-5.314540271342858
O	4.931824640342857	4.039860988314285	-7.320683571342858
O	1.5027642043428573	4.146582188314285	-5.604359151342858
O	-0.6954841396571427	7.025872098314285	-6.471219721342858
O	-4.407715719657143	7.690635278314286	-6.683769281342858
O	-4.467341029657143	12.996753188314285	-0.12448473234285751
O	-3.271927519657143	9.589854278314284	-1.3384189013428576
O	-2.029374079657143	4.493041888314285	2.197817858657143
O	-1.1422045196571426	4.3504056283142845	5.897207048657142
O	-4.773691639657143	-4.251871711685715	7.842115038657142
O	-1.0861792196571427	-3.6101910316857153	8.735038348657143
O	10.173777470342856	-0.1531829606857152	9.427228868657144
O	7.316157210342857	2.252277408314285	10.088062368657143
O	4.668798830342857	1.426927068314285	7.429823918657142
O	2.0849906843428574	3.7676791783142853	9.061289638657144
O	3.004107360342857	-7.379085951685715	4.031511478657142
O	2.568463604342857	-9.208986981685715	0.6758970336571424
O	1.1073902663428572	-11.999941011685715	2.5488537886571425
O	-2.567511759657143	-1.1385411536857153	4.802414308657142
O	0.5802464503428573	0.6794184783142848	4.2405265986571425
O	0.31371206034285715	1.2750763183142846	0.39924760865714254
O	-3.540194769657143	0.8629219183142848	0.4095674326571425
O	-3.710934999657143	-1.605903911685715	-2.4726052313428575
O	-2.369477209657143	-5.127140081685715	-1.6235262513428577
O	-3.7299815396571425	-6.296345921685715	1.6346553086571425
O	-4.166721879657143	1.0450709783142846	-9.144151001342857
O	-2.7194134796571428	-2.237240421685715	-8.106085181342857
O	-5.367850979657143	-3.7540568916857153	-5.978374531342858
O	-4.097452439657143	-7.113097721685715	-4.895336701342858
O	-0.37928513965714306	-7.293233251685715	-4.984471051342858
O	0.37472250034285715	-11.001503111685714	-5.359686751342858
O	-3.506026149657143	-12.697323111685716	-2.325896061342857
