41

O	45.95079280660659	13.783424793409727	3.8324868420843803
O	45.898858428169625	9.927746498594729	1.651527579373024
O	46.04118247087884	9.277105208629994	0.36419814073370294
O	46.38552021305894	15.179495452194299	4.052230828259341
O	46.78372298908367	8.025743828174534	0.6469659730022315
O	47.88136677502685	15.138467162937683	3.9235608931920725
O	42.72918030563248	12.617977567123623	-3.2267787340890077
O	48.151193708294635	14.116417646257233	4.899429246781099
O	46.36938318170145	12.746285132398562	-3.028384199196074
O	47.2044413537772	12.798993282939595	4.480649685938683
O	47.27568250802558	12.831689848714587	-4.091696078298773
O	46.67952962402196	11.771725885321091	5.358881239025073
O	46.57818329064777	9.455015559868572	-2.252625376984856
O	47.955985023321716	12.11597961647027	3.3889461470822404
O	46.92764728380917	9.90877481536361	-0.982834180861305
O	48.2610737381109	10.133454591156278	-0.8021923880915427
O	48.68859184641938	16.11240791457056	3.804593176100778
O	48.82995400457709	10.776923722555722	-1.8989302818508564
O	46.03915105070229	13.769500970458548	2.339062178525655
O	43.8946920852422	12.53668282955501	-1.4894251443440032
O	46.87958779725692	13.083158138687747	1.5245606628712123
O	46.31345420852075	12.672723370595637	0.30837141483190056
O	42.98284884611188	11.354737168447212	-2.9639844708450873
O	45.01752212437298	12.221096443806037	0.3961013174192951
O	44.2486411845178	13.251715696836554	0.9970918654204084
O	44.858695481474555	14.23928344050291	1.7597241246955768
O	46.97259838201287	12.007144430538878	-5.172793099768613
O	47.03291374134988	8.423888332559416	-4.350728297445871
O	45.72489266641678	11.48426088915881	-5.390587288248485
O	44.85833502868796	11.512737373145244	-4.291037416556163
O	44.25512460872359	10.93585732692457	0.5126976545432287
O	44.12727548239056	10.335187466510853	-0.8114479919812521
O	43.997324573040494	13.290309116871303	-2.655147190699937
O	47.49271630470359	9.313904030286114	-3.2712040823731314
O	43.96090131377111	11.266562327707023	-1.8912279720786174
O	48.65635094109716	9.978316859370999	-3.0536814669373573
O	45.078117076313454	12.592272698572831	-3.4431836551531934
O	44.4962216818429	9.051082849530498	-0.53957559742698
O	45.6389742473901	8.429323801585618	-4.468740079269816
O	47.35397407468138	7.144884577836439	-3.9889793331643073
O	47.516288939002145	8.876212168037563	-5.525865932451547
