81

O	5.028948875522728	2.8693863465000007	-3.2708970638954544
O	8.365142505522728	3.6414423105000004	-2.6940969538954547
O	4.711782645522728	1.6548124325000007	1.1939966161045454
O	3.984880675522728	2.155959319500001	-2.6719766338954547
O	8.119850525522727	2.4180608666000007	0.6925627161045455
O	4.989460135522728	3.8742564705000007	-4.226282863895455
O	4.4234185055227275	1.3963441525000007	-1.5486143138954547
O	5.6592577055227276	0.8847424805000006	-1.6430348538954545
O	8.637415465522729	5.463532200500001	-1.2834476468954545
O	6.467111115522728	2.0510808745000007	-1.5534911928954545
O	2.752284545522728	2.8534913895000007	-2.6444947838954547
O	6.254274655522728	2.739835570500001	-2.7742809238954544
O	2.6532772525227277	5.9305943805000005	-3.4952783838954544
O	7.898620665522728	1.3985335595000006	-1.7449470638954545
O	2.5379117115227277	5.101610430500001	-5.544997063895455
O	2.197143806522728	3.5213350705000006	-3.7207281338954545
O	9.819800985522727	3.6049515905000007	-0.01574971689545457
O	8.686934605522728	2.6483990195000007	-1.7299485238954544
O	8.738857915522727	4.9707189105000005	-2.4232617038954545
O	8.715431965522727	3.1412682355000006	-0.35083514389545456
O	3.5357767555227277	4.8515481205	-0.7338814487054546
O	8.784215635522727	2.0291154275000007	1.9455887961045457
O	5.629501365522728	5.122795930500001	-1.0263181278954545
O	7.761955945522727	0.9835111405000008	2.4652697361045455
O	5.8933920255227275	6.250199870500001	0.9854010461045454
O	5.3883698155227275	0.4436203105000007	1.5793951161045454
O	6.857660365522728	0.4391586005000008	1.4282016561045454
O	8.578260975522728	5.944813080500001	-3.5496176638954546
O	2.535100402522728	4.876433530500001	-4.143831223895455
O	5.099037745522727	2.8511122585000006	1.6479601361045457
O	5.694062865522728	2.758261642500001	2.9192732761045455
O	6.279943045522728	3.8669841305000006	3.4248751461045455
O	5.773627275522728	5.080007850500001	2.9829702561045455
O	5.135830545522728	5.2243073505	1.7195048161045454
O	5.037364245522728	4.0111605605000005	0.9581676661045454
O	4.615446595522728	4.363592760500001	-0.34957071089545455
O	5.534406415522728	5.964595390500001	-2.1081337738954544
O	4.183966005522728	3.1287022795000006	11.882262236104545
O	2.871386325522728	-1.6519080394999994	13.221270936104546
O	3.523341505522728	-5.387779549499999	13.013397836104545
O	7.439697735522728	-13.250548699499998	-1.5216901338954547
O	7.797988055522728	-3.3720036994999996	-5.8458271538954545
O	10.847312025522728	-4.958177859499999	-4.093947473895454
O	9.824823885522727	-3.4212619894999996	-0.6432288594954545
O	6.086866345522727	-4.176663029499999	-0.7971525178954546
O	5.410503775522727	-7.8325476995	0.032134008104545475
O	2.621005869522728	-9.8335371995	1.5949803961045457
O	3.192793905522728	-11.4773193995	4.991448906104545
O	1.4644264825227278	-10.2668599995	-4.097718023895455
O	-1.829769014477272	-10.1165400995	-2.2264382338954545
O	-3.087501754477272	-6.5949997895	-3.7941087838954544
O	-0.6660160344772721	-4.6808252894999995	-6.079518753895455
O	-1.894357684477272	-3.743782819499999	-9.581442743895455
O	-9.351342614477273	-0.22276700949999917	-8.309673583895455
O	4.175066795522728	5.3564040305	-15.911347263895454
O	1.0422560635227278	1.3616477695000007	-12.608394563895455
O	-0.9049275544772724	8.413355220500002	-5.991340293895455
O	0.34022549552272774	9.334153070500001	-2.3975727338954544
O	-5.796864914477272	-2.5597274494999995	-5.309977733895455
O	-4.063511474477272	0.5211293805000008	-6.388439083895454
O	-0.5871067144772724	0.18586913050000087	-7.751601813895454
O	1.3054006175227277	-1.1122993094999991	-4.588397953895455
O	-1.8317251444772724	-2.1021250894999994	-2.7491659738954546
O	-0.8980206944772724	-0.2323865094999995	0.44761262610454555
O	-1.3980205744772722	3.5160424405000006	0.4150571561045454
O	-4.746789714477272	4.363500480500001	-1.4013733388954546
O	-5.742882414477272	0.7691245105000006	-0.8593717898954546
O	-5.147938264477272	0.9860780905000006	2.8668749861045457
O	-7.1730200844772725	4.202550100500001	2.9977778761045455
O	-0.28056263447727225	-6.2061873095	5.1730147361045455
O	2.601298091522728	-3.819944349499999	5.595979266104545
O	2.563340914522728	-0.02731045949999933	4.879845716104546
O	-1.2673518544772722	0.4091068005000007	4.909341316104546
O	-1.821094634477272	4.100185360500001	4.550312326104546
O	1.0807471575227279	5.804901640500001	3.2340424161045456
O	0.8232127445227277	9.431659600500002	4.325340506104546
O	-0.3050951744772723	11.3743243405	7.292129446104546
O	-2.801407094477272	13.122320100500001	4.955237666104545
O	-4.289631904477272	9.7810469305	3.850545386104546
O	-4.7583436344772725	9.0167688805	7.5848494461045455
O	-8.552378214477272	11.868632490500001	5.1342736161045455
