85

O	0.7657501029736833	-1.744531685278947	-7.8294765605
O	-0.4192758460263167	0.03820490982105307	-5.5481674304999995
O	0.6023679169736833	-5.059956910178947	-7.605603690499999
O	1.6974839689736834	-5.469675700178947	-6.7503681705
O	-1.8570450810263168	0.09570146982105299	-5.8711862004999995
O	2.8191258989736836	-5.140083840178947	-7.637713700499999
O	-2.5504811110263166	1.231261229821053	-5.2367776804999995
O	4.9678751289736836	-5.983845330178947	-6.604089030499999
O	3.5576356189736833	-6.662698920178947	-2.3231499904999993
O	-2.0436271810263165	1.4541394498210531	-3.9005885974999996
O	-1.1433577310263168	-5.536228580178947	-5.1491046905
O	2.7624167689736834	-5.637735800178947	-1.6458626304999995
O	1.5006840989736834	-5.584585460178947	-2.2237725204999994
O	-0.3745536870263167	1.124382729821053	-4.1055328645
O	0.2670181709736833	0.3410498298210529	-3.0601358014999995
O	0.2801595949736833	-7.844837750178947	-6.7162796904999995
O	0.2002307709736833	2.3609907298210535	-4.6652953004999995
O	1.4274962589736833	-7.141982030178947	-6.369743520499999
O	2.5175883289736833	-7.914937370178947	-6.841868460499999
O	-3.4439891610263165	2.0555010798210533	-5.622869790499999
O	2.5454562089736834	-9.290715110178947	-6.7435457605
O	0.1801014809736833	-1.271009431178947	-5.263264340499999
O	5.029812428973684	-6.825289950178947	-4.674179070499999
O	-0.5092702060263167	-4.766012210178947	-3.1951109004999996
O	0.33056240497368333	-1.819832401118947	-3.990770565499999
O	1.5056150289736834	-2.3809671251789473	-3.5499830834999995
O	2.4373516789736835	-2.731137039178947	-4.4684599805
O	-1.7138292310263168	-8.201608330178948	-4.2573862165
O	2.1798111089736834	-2.5509490061789473	-5.7836833205
O	1.0586650089736833	-1.895327305078947	-6.162788250499999
O	3.7780529689736837	-8.591375290178947	-3.7843505864999996
O	3.6429754989736836	-3.641940790178947	-4.235834873499999
O	3.4690455089736836	-4.803236020178947	-5.091157170499999
O	4.951225998973683	-8.233976410178947	-4.694663520499999
O	0.29720630297368333	-9.200686050178946	-6.385338430499999
O	4.3173565589736835	-5.876366500178947	-5.494686720499999
O	1.4896811089736832	-9.798699920178947	-5.9746308704999995
O	3.0320556089736836	-7.282085740178947	-3.5518059254999996
O	1.0309498789736833	-6.902329480178947	-2.4549801774999995
O	1.2121779289736834	-7.930025790178947	-1.5172461704999995
O	0.9250178459736833	-9.202522490178946	-1.9990770004999994
O	-0.1047795869263167	-9.286499330178946	-2.9301290254999994
O	-0.6562926340263168	-8.098593160178947	-3.4015469962999996
O	0.1657777479736833	-6.934175290178946	-3.4977283444999996
O	-0.6214793010263168	-5.786127010178947	-3.9005297044999994
O	-1.3522024810263167	-4.210130850178947	-5.639371960499999
O	2.0472781889736833	-4.853330840178947	-5.2788013304999994
O	-4.248269201026316	-12.531878930178946	1.8518878395000002
O	-1.7410342410263167	-12.299460630178947	6.3532913595
O	1.5210441889736832	-11.990902930178947	8.2710709695
O	13.832556488973683	-1.122490259178947	3.7394828195000005
O	8.351573118973684	4.462697419821053	-4.141640013499999
O	7.568691978973684	0.841039289821053	-4.9597795504999995
O	10.099083688973684	-1.971780556178947	-4.954069810499999
O	7.616005668973684	-4.282082480178947	-3.4785927564999994
O	5.8876195189736835	-2.272387968178947	-0.8847317704999993
O	8.103521208973683	-1.997036196178947	2.1755485295000008
O	7.488302338973684	-1.712779000378947	5.778603759499999
O	8.215587678973684	-4.503332360178947	8.258370169500001
O	8.742313748973684	3.8568737698210533	4.321805249500001
O	3.1792534489736837	5.713538209821054	4.8076528495
O	3.7899651589736836	6.035310129821053	1.0401689595000003
O	3.2912235289736835	9.387452269821054	-0.7091826604999993
O	1.8313252589736833	9.840342069821054	-13.2684992205
O	2.0414171289736833	9.330978769821053	-7.2660518005
O	-6.153893441026317	4.322416389821053	-7.204140060499999
O	-7.230717581026316	0.6118303198210528	-6.777939330499999
O	-1.0863174810263168	7.9574753598210535	3.0762390295000004
O	-2.0370459610263163	7.413747519821053	-0.5072375204999995
O	0.6205106449736832	6.472462889821053	-3.0929123934999994
O	1.9148187989736833	3.1334633898210535	-1.7022247704999995
O	0.2038039759736833	3.5843432198210534	1.6308724195000006
O	-1.5130331410263167	0.11833600982105308	1.4581768195000007
O	-4.672998911026316	0.10919752982105302	-0.6284572304999996
O	-6.7698398010263166	3.212713799821053	-0.02299622049999961
O	-4.859752351026317	3.7852041798210534	3.2484379895000006
O	1.8623271189736832	-5.595935400178947	4.081609909500001
O	-0.8204219250263167	-5.499277950178947	1.3521689895000004
O	-3.4247135710263166	-3.4682826701789473	3.3393761195000002
O	-6.428229531026316	-3.3290868101789473	1.1025126095000002
O	-5.381593681026317	-4.018295060178947	-2.4582261464999995
O	-8.726360541026317	-5.182622150178947	-4.0111259235
O	-11.955032011026317	-2.159568529178947	-1.3593259504999993
O	-12.667340811026316	-4.963544470178947	1.1585369495000006
O	-16.444350511026318	-1.288678185178947	0.38131978950000045
