68

O	2.8584907621029414	3.6671889689205885	-2.3312710626764703
O	3.0267095221029408	4.894519030920589	-3.18295235267647
O	2.490338373102941	6.063521437920588	-2.47805885267647
O	4.007267872102941	5.330011097920589	4.17924022732353
O	1.497837789102941	5.751865187920588	-1.5292588126764703
O	3.254475832102941	6.190025007920589	3.2987611473235297
O	1.320579373102941	4.064239989820589	-1.4411992426764701
O	2.336476045102941	7.606503077920589	1.2410644403235298
O	0.310084102102941	3.3402287559205885	-2.1921216726764703
O	1.3615437781029411	3.5258578729205885	-0.037676873676470324
O	2.954356832102941	7.234536007920589	-2.6239323826764704
O	3.8190552621029408	3.9044482676205883	-1.2102095626764702
O	3.6455944921029415	2.958615707920589	-0.17873525567647025
O	4.622831662102941	3.1256967439205887	0.7626364193235298
O	5.152019582102941	4.356630518920588	1.1361656373235296
O	4.697683462102941	5.3976995079205885	0.34001106422352967
O	3.7488382021029407	5.202973707920588	-0.6589888926764702
O	6.6394173321029415	4.275107984920589	1.3450121823235297
O	7.1208792621029415	5.723251047920589	1.3280415523235296
O	6.791063482102941	6.4946517879205885	0.11694628832352971
O	7.023466832102941	5.952401457920589	-0.9721386726764703
O	6.243131182102942	7.8233207379205885	0.1485452333235297
O	2.157289894102941	5.659620477920589	2.62959419732353
O	1.674022041702941	6.5113968179205886	1.6747229073235297
O	3.443317752102941	8.031745577920589	1.9055220573235299
O	3.579648582102941	7.539492867920588	3.1990080573235296
O	6.230357092102941	6.333453177920589	2.3351674573235295
O	6.139022482102941	5.518011957920589	3.4803210273235297
O	5.261860012102941	6.005111147920589	4.58179469732353
O	7.277782312102941	5.104277527920589	3.90480333732353
O	5.4070382021029415	7.457920477920588	4.54027040732353
O	5.862249292102941	8.128453857920588	5.6960347173235295
O	6.193271352102942	7.401775537920589	6.68081592732353
O	5.378960012102941	9.534966687920589	5.86237653732353
O	-0.5888380278970591	-2.8138356820794113	13.71856772732353
O	4.311055232102941	-3.6704770520794114	7.9026544373235295
O	5.652084792102941	-2.3682349920794112	4.53191169732353
O	4.7765460121029415	1.1124269879205886	5.26149028732353
O	4.706707182102941	2.8240318079205884	8.702047497323528
O	1.625427939602941	4.942922831920589	7.76222894732353
O	-0.324831097897059	2.2948137579205885	6.00216543732353
O	-2.0225623678970592	0.1443347179205885	8.69879365732353
O	-5.214327257897058	-1.7397462820794112	8.99881114732353
O	-1.545132597897059	-5.991814642079412	7.39927831732353
O	-0.10717618789705896	-4.914772142079412	1.3367886123235297
O	2.260456254102941	-6.829911742079412	-0.9479528626764702
O	3.674936542102941	-9.508391542079412	1.3904137093235296
O	-2.340758917897059	-5.083559712079412	-9.11980707267647
O	12.39884145210294	-1.0280807420794118	-5.8675461626764704
O	10.87088641210294	-4.222102012079413	-4.53431414267647
O	7.258950652102941	-3.3444452020794118	-3.7063213026764705
O	6.284402152102941	-7.026162242079412	-3.09343390267647
O	2.0150352671029412	2.7051704079205887	-8.949625082676471
O	0.1077763921029411	5.9879442679205885	-8.17513402267647
O	-1.179909607897059	5.661580687920589	-11.68520397267647
O	-0.876503117897059	-3.882945592079411	-4.69073389267647
O	2.1245633261029413	-2.7085212320794114	-2.7631803826764703
O	0.5229207121029411	-0.6564672920794119	0.08053003032352968
O	-2.9406478978970583	-2.175178552079412	-0.5362922406764703
O	-4.950298807897059	1.0365185079205883	-0.7674951826764702
O	-4.225515027897059	3.0474198359205884	-3.98031469267647
O	-4.701484407897059	0.6465891379205884	-6.95563423267647
O	-7.292836247897058	4.095247603920589	5.2957508573235295
O	-6.0784185478970585	5.893371687920588	2.1816549873235296
O	-8.23186042789706	4.042329920620588	-0.3968423336764703
O	-7.484375807897059	5.732613147920588	-3.67140440267647
O	-4.102485887897059	7.5447781779205885	-3.3633915526764704
O	-4.382628077897059	10.252553167920588	-6.05845991267647
