78

O	5.700929729211539	-0.9381699653846162	0.31631221305653856
O	5.815010209211538	0.14567424861538392	1.2263403030565387
O	5.647430879211538	1.412930424615384	0.8450847730565385
O	4.834298429211539	1.3480688596153838	-0.28447955094346145
O	4.6401698792115385	0.09022455961538389	-0.8546612961434614
O	5.870418939211539	-0.6083624553846162	-0.9533226955434615
O	6.577994699211538	2.445204304615384	0.8031993030565385
O	6.115865389211538	3.529354634615384	0.12137651305653852
O	4.948299939211538	3.422568424615384	-0.5655982379434614
O	3.9623579092115384	2.383184154615384	-0.33927026894346146
O	2.9917301292115384	2.075360814615384	-1.4485389749434616
O	1.5878465592115383	1.9582687646153838	-1.3318785469434615
O	3.9632087792115382	1.680507067615384	-2.4147578469434614
O	0.7905785302115382	0.8501224788153838	-1.4008541959434615
O	-0.24290359678846174	0.8205279159353839	-2.0620596869434618
O	1.6253782492115383	-0.1575681593846161	-1.0974022369434615
O	1.5084780292115383	1.999651104615384	0.09561921305653853
O	5.110705259211539	2.505354314615384	-2.4456672069434617
O	6.395151619211538	2.106716034615384	-2.6645418269434615
O	6.310713029211538	0.9795704946153838	-3.304366426943462
O	5.074191559211538	0.5221100256153839	-3.9004650269434613
O	3.797459959211538	0.6802050156153838	-3.2616429669434615
O	2.4661337092115385	0.3649229146153839	-3.7195954969434615
O	2.126359649211538	-0.8293334353846161	-3.840048336943461
O	1.5287114492115383	1.1604846826153838	-4.329404696943461
O	7.167567739211538	-0.7589174653846161	-1.4610105439434615
O	5.625834959211538	15.288438594615384	3.012710363056539
O	8.595977039211538	-6.391829905384617	3.9346666730565385
O	10.207733709211539	-3.003522365384616	2.942768623056539
O	13.466526709211537	-1.4581135853846163	4.193930203056539
O	12.059564509211539	2.083290454615384	3.933532233056538
O	8.64157375921154	1.431864769615384	5.489375443056538
O	5.172184579211538	-4.002894935384616	11.122858963056538
O	1.8011276792115383	-2.5168325653846164	12.173540063056539
O	-0.0011375517884616992	-2.961624925384616	8.494463783056538
O	2.053288409211538	-4.407701985384616	5.613448473056538
O	0.7754812672115383	-7.527089715384616	3.722672663056538
O	-7.1243808307884615	-5.764034035384617	1.9004757030565387
O	-6.4199405407884615	-3.2651877553846163	-0.9077630628834614
O	-3.8554637907884617	-5.130818845384616	-2.9899671869434616
O	-3.6456711607884618	-8.440587695384616	-4.865060906943461
O	-1.2767003307884617	-11.231765705384616	-3.808134826943461
O	0.6502918612115383	-10.697877205384616	-7.085679976943462
O	1.0371216102115381	-7.264900435384616	-8.629567106943462
O	3.3000538792115384	-6.2972032153846165	-11.524823636943461
O	4.929475169211538	-9.723790705384616	-11.463689736943461
O	5.891865659211538	-9.552076105384616	-7.8111431169434615
O	3.119232139211538	-8.372022785384615	-2.5134144569434618
O	-10.705626890788462	-7.6041180953846155	-0.5573223059434615
O	-10.392473290788462	-4.844574865384616	-3.109059436943461
O	-6.835654130788462	-0.9476728753846161	-6.966670506943462
O	-3.4112535907884616	-0.6655263253846161	-8.616616676943462
O	-0.24164412478846165	-0.11566766038461618	-6.588821326943462
O	0.6910786652115383	3.677863804615384	-6.504931456943462
O	-2.7479234007884616	4.136107524615384	-8.283074966943461
O	-6.322685010788462	5.151762004615383	-7.5342700969434615
O	-9.654515190788462	3.285453244615384	-7.616739136943462
O	-3.3649098207884616	-3.3413643553846164	4.579643883056538
O	-2.159379630788462	-3.3901754653846163	1.2119132430565387
O	1.5203131692115384	-4.279187975384616	0.45019108305653854
O	3.3044142892115382	-1.7254028853846162	2.592577793056538
O	0.4025216632115383	-0.48695086538461607	4.333248083056538
O	0.6844819192115383	3.2550811046153836	3.780168443056538
O	-0.49127352478846165	4.290391634615384	0.20021974305653845
O	-3.868352210788462	2.689907744615384	-0.6660038979434615
O	-4.027606750788462	1.9061582946153837	2.8801888630565387
O	-3.6684842107884617	5.622790064615383	3.9417610430565384
O	-6.153490310788461	6.650298814615383	1.2255920130565385
O	1.0427425502115382	10.615852374615384	9.77132146305654
O	2.6398664092115385	5.888390884615384	10.523597563056539
O	5.036221519211538	7.1817909546153835	7.831518083056538
O	4.229075269211538	7.726712744615384	4.202653393056538
O	0.3341742402115383	7.669634404615384	4.4687879430565385
O	-0.8818656707884618	8.477816724615383	0.9807760230565385
O	2.0900395692115383	7.679341064615384	-1.4613919739434613
O	1.1500254262115384	10.012915704615384	-4.461782196943462
O	-4.072551670788462	9.394490034615384	-4.212164086943462
O	-9.129303990788461	11.294162894615384	-1.3305097629434615
