39

O	43.99859086369853	15.093667411716538	0.31768487561341363
O	44.78872666136654	16.20861020795127	-0.3930302799087242
O	46.04788947099226	15.53884891894428	-0.8589249553697123
O	44.77526024078172	9.272370021076814	-0.39127278440650404
O	46.64957950578834	14.889989246609641	0.27160123876788234
O	45.6163074961843	8.325391552767755	-1.2262456148957535
O	45.36301931503817	14.495774328470526	1.3695062590757603
O	45.95520552213139	5.651319760471333	-1.8637920291317487
O	45.27964551141809	15.331787604043313	2.5608485865731456
O	45.24374553916732	13.029181705772462	1.5991054469416528
O	46.70680520677756	15.628853182100894	-1.9453983717777215
O	43.8041746307455	13.921781410286762	-0.5927771938808153
O	42.60833889183676	13.451899208718881	-1.0615046275811153
O	42.63708302181885	12.906669663136853	-2.3422451425452673
O	43.81493228866101	12.420580856792174	-2.9152192587790138
O	44.95801084928963	13.008025517947017	-2.3721218965066813
O	44.91616017506703	13.159042808242774	-0.9854267263081855
O	44.000237369613465	12.324334743908649	-4.410809644583964
O	44.71646293126999	11.081250824127652	-4.791549938777025
O	46.18448625524789	11.161465486949258	-4.878608032692051
O	46.76378372691641	12.03512474816036	-4.210908807915929
O	46.85860319335374	9.903075504218855	-5.052522466040624
O	46.734283870085214	7.700779471382522	-0.7694595635144443
O	46.62786099973436	6.293952747690108	-0.8298512172025712
O	44.92654904025049	6.34516267720033	-2.4708105937464877
O	45.17202013644045	7.730184944421991	-2.4191116113009423
O	44.436529529491665	9.991202999794277	-3.9030745302787073
O	44.918153704095076	10.185652764459961	-2.5918024140900684
O	43.983027955749606	9.924256501642644	-1.4469714955692234
O	46.185201431952976	10.168991301629108	-2.4808937178603907
O	42.695810307575975	9.564933003787136	-1.79273439441104
O	42.363214666599255	9.386695035106332	-3.1769310578170566
O	42.52846042404876	8.22053787859918	-3.557514443661579
O	41.04267647749374	9.936566739726695	-3.5436043903165855
O	39.94599407505026	9.143772844751618	-3.380327500212606
O	38.77963516355018	9.564139718053477	-3.9553183906734963
O	38.89295556888049	10.334287169854292	-5.0812531786821955
O	39.899495532129514	11.296241739138683	-5.061405287809532
O	41.078927276094575	10.861465962596451	-4.539890390074077
