72

O	-8.716754388947368	-0.6605666752368418	-1.7474815358657891
O	-9.451657078947369	-0.538004225236842	-0.5674447058657892
O	-8.929509718947369	0.327911324763158	0.3954298671342107
O	-7.639309978947368	0.7472109347631581	0.2404536471342107
O	-6.824204188947369	-0.002996655236842116	-0.5709719888657893
O	-7.3798084989473685	-0.2503597652368419	-1.8138610898657892
O	-5.527274958947369	0.531924174763158	-0.5873526088657892
O	-5.170926468947369	1.879151771763158	-1.4485469555657893
O	-3.7936759319473685	2.266425072563158	-1.4219360293657892
O	-5.949772248947369	2.958066516763158	-0.7829413498657892
O	-6.0342150389473685	1.645080707763158	-3.0027150528657893
O	-7.346915808947369	2.367317716163158	-2.9664153528657895
O	-5.3869519489473685	2.582387100763158	-3.859155192865789
O	-5.468977328947369	4.060821634763158	-3.6622871728657893
O	-4.466203358947369	4.557333774763158	-4.563242452865789
O	-3.2426200364473687	4.300680844763158	-3.8943133728657893
O	-3.112172067947369	5.097175164763158	-2.8095235028657894
O	-4.161281351947369	5.246548834763158	-1.9754004028657892
O	-5.375584698947369	4.917455524763158	-2.5575704028657893
O	-1.6874211089473687	5.238033754763158	-2.4974639928657894
O	-0.6435934489473687	4.304978844763158	-2.8599415928657894
O	0.771198721052631	4.548749214763157	-2.7534457728657893
O	-1.0537078589473685	3.180516825763158	-3.1982565628657893
O	1.5340670810526316	4.138406664763158	-1.8247925958657891
O	1.5336215510526312	5.216880814763158	-3.732779152865789
O	-8.62692936894737	2.229501658763158	-3.2949186828657893
O	-9.165140008947368	2.595118466763158	-2.0744943018657893
O	-8.53725878894737	3.780636104763158	-1.8199219938657891
O	-7.3692246789473685	3.503046174763158	-2.259112327865789
O	-10.469688328947369	2.4692160327631583	-1.6687570648657892
O	-11.140507508947369	3.483273404763158	-0.9940457098657892
O	-10.508005008947368	4.706471914763158	-0.8050009498657892
O	-9.14604025894737	4.782961424763158	-1.0728860918657892
O	-10.819433518947369	-0.521400065236842	-0.6225119518657892
O	-8.72852939894737	-8.174437585236841	-5.612776482865789
O	-8.324017268947369	-11.086016485236843	-1.3172976139657893
O	-8.926902038947368	-11.339351785236843	2.4339550071342106
O	-5.695167138947369	1.520521875763158	13.03258678713421
O	-0.43711827894736865	8.316606114763157	6.066978887134211
O	-3.4608103859473687	7.184032044763158	4.093248557134211
O	-7.018967288947369	6.971152834763158	5.380838157134211
O	-7.680297948947369	3.883126114763158	3.440600777134211
O	-4.438102248947368	1.9234030537631581	3.895322227134211
O	-4.417000918947369	0.194220724763158	7.326503817134212
O	-2.8086828519473688	-2.8530696152368415	8.906942187134211
O	-5.023666048947369	-5.783773855236842	9.90745938713421
O	0.922222211052631	1.313605184763158	10.318810787134211
O	4.969508051052632	-0.474495695236842	6.437582517134211
O	4.076183611052631	3.001892235763158	5.14664391713421
O	6.846347621052631	5.615080604763158	4.752753727134211
O	4.200650971052632	15.686325214763158	-2.6762067628657893
O	5.6993915310526315	10.582222374763159	0.40619226713421086
O	4.425795551052631	5.451561734763159	-7.63219677286579
O	1.6110853210526317	3.186262935763158	-9.14450117286579
O	8.304337621052632	0.257534004763158	2.6210060971342104
O	7.374315921052631	2.656149511763158	-0.08712970286578914
O	4.817582361052631	5.400990064763159	0.6330928471342108
O	1.6192512510526313	3.370214804763158	1.4391952271342108
O	3.5634310810526317	0.11814353476315809	1.9124949271342109
O	1.281775211052631	-1.8136216852368419	-0.4830181378657892
O	1.9329142910526311	-1.235915055236842	-4.158091282865789
O	5.550963451052631	-0.994011885236842	-4.876194272865789
O	6.337120701052632	-2.924532735236842	-1.5740305768657892
O	-4.209246687947369	-5.334041605236842	2.340829067134211
O	-3.831494529947369	-4.014944085236842	-1.2611465218657891
O	-0.48264662894736876	-5.661952575236842	-2.023880834865789
O	0.2239273710526315	-4.826635455236842	-5.614959732865789
O	-1.8035019989473686	-1.8113513752368418	-6.6560072428657895
O	-1.9412787489473686	-2.2195196552368417	-10.46072915286579
O	1.1759658910526314	-3.9148656352368416	-14.56443501286579
O	2.8570875010526313	-4.3014400152368415	-11.17148848286579
O	1.437572891052631	-7.869068185236842	-11.178947412865789
