43

O	46.64990326051826	12.96657888158876	1.7867483483892084
O	46.466930532366874	8.377202502685442	-0.19511045303485375
O	47.98884966352346	9.18454463928641	2.2680538799042695
O	46.524257322726676	12.985860267123773	3.141409905659035
O	47.82324493550717	10.810708058055273	-1.5102418260201498
O	46.29538928325691	14.238038008434906	3.6209708536597844
O	46.58049379701115	11.681648960018705	3.541670169725412
O	44.66459600452165	17.225276436989397	2.9643821266718975
O	45.65116049467889	10.825054787546769	2.8818952264194353
O	47.812504940200284	7.837361687068474	-1.9050330635807962
O	45.579522274014536	10.949739790119164	1.5324994411965243
O	44.69017360759576	16.867131113167893	5.083704018034231
O	45.798898094755245	12.20962814107256	1.070236238817909
O	46.9032793909365	17.530078445203415	2.962929134253466
O	45.084133489131766	10.1468726811085	0.3910140564089932
O	46.818655619003984	17.215321224443485	5.130793109009529
O	46.07443516822023	15.534551672593187	3.57143501786943
O	45.724454829912396	11.372391527106682	-2.091191075573792
O	45.876443463052716	9.556986495729237	-0.661869714913558
O	47.39275413131398	6.210570256685186	-0.32375219496945196
O	47.206451731448134	7.450711361630448	-0.8868933751585599
O	46.475257850835106	10.445642336255311	-1.6362137982153948
O	50.206834741982554	9.13777264925991	-0.5125091292795592
O	48.30797604696564	12.155168410293095	-1.1905635572438138
O	49.73948775194559	7.44779164958879	0.7721294000248484
O	49.23686006072911	11.962572488643767	-0.05756761957733403
O	51.9393008379407	10.435227688134216	0.8444887489765529
O	48.17709328781028	10.041679986214364	1.0892298567432048
O	48.874582779025815	11.326164834764855	1.217611651623928
O	44.782627301010976	16.24772060025944	3.790383977241239
O	47.03007044060227	16.607942027972253	3.851100552341196
O	49.2147601356281	9.387647419631538	2.922313781409975
O	49.73363197887143	8.460534151834725	3.825618821354321
O	51.139687407953915	8.30432819522754	3.7507870438697224
O	51.969682995093294	9.227223140979003	3.0685507071341656
O	51.379966131133344	10.125869960918706	2.1438094920687547
O	50.07517187879	9.652094863337279	1.855114638358116
O	49.87935413229916	8.796188733187385	0.5788648196982225
O	50.748163323509715	6.505484386047588	0.6384585099033648
O	48.08321839629141	5.2030278996571635	-0.9849981550514544
O	47.00070901328897	4.597513834954391	-1.8862456048444889
O	48.6022176060457	4.084874719013611	-0.14601609413016892
O	49.06516661219362	5.7061010599543005	-2.0507179792728527
