70

O	-5.046436263355101	2.8859152882040813	-1.8054070502448978
O	-0.4276758003551018	-0.31263564179591885	-5.510578891244897
O	-2.958314253355102	1.6856746372040812	-4.534585231244898
O	-6.136703143355101	2.2316043792040814	-2.4012470812448976
O	-0.7092389963551018	-1.3685479017959186	-3.5635305712448977
O	-6.604370293355101	2.658538428204081	-3.642693551244898
O	0.015444876644898242	1.3690980956040812	-2.3285707312448976
O	-6.262887863355102	3.951009008204081	-3.8584000712448976
O	2.020542826644898	-0.015286931795918779	-3.290190031244898
O	-4.933304673355101	4.296940008204081	-3.5943601612448974
O	2.487214156644898	1.0485396882040812	-1.4279090082448977
O	-4.223729963355102	3.489285718204081	-2.7608895212448976
O	-7.157301023355101	1.6726591302040812	-4.389843891244898
O	-2.968386543355102	2.9442227882040815	-3.314688411244898
O	-1.9607495663551018	2.5670719682040812	-2.5024420412448976
O	-1.2450074473551018	1.4763056942040813	-2.871416001244898
O	-1.7028049333551019	0.7651806562040813	-3.933790381244898
O	-1.1861127123551019	-0.4785785817959187	-4.537690281244898
O	1.0506535766448981	2.077341637204081	-3.028499971244898
O	2.1543980266448983	1.1301663492040812	-2.748479041244898
O	-2.316018119355102	2.949058838204081	-0.6826080562448978
O	-10.324386563355102	-2.391868401795919	5.6680660687551025
O	-8.639661793355101	-3.2652297217959187	2.3732886387551018
O	-9.317829053355101	0.13509189820408118	0.8639382087551022
O	-12.377078853355103	2.4157237982040813	1.4296220287551022
O	-10.165998663355102	5.556721128204081	1.0677557287551023
O	-7.2674679333551016	4.459753968204081	3.3059328887551027
O	-8.038443563355102	4.572045938204082	6.999262678755103
O	-6.160040833355103	5.149322478204081	10.227851918755102
O	-6.1669566333551025	-0.6603033217959187	9.994550918755102
O	-0.5818896043551018	-0.9946559717959189	8.348146668755103
O	-2.3174307263551017	-2.3565739217959187	5.229731268755103
O	-1.5165697923551018	-5.801849781795919	3.8379464887551027
O	6.805646946644897	-6.090005941795919	3.846711678755103
O	7.284226516644898	-3.934401921795919	0.7485204987551022
O	4.802199146644899	-5.577222061795919	-1.6702979302448977
O	4.1377821466448985	-8.962018661795918	-3.2232475412448975
O	1.0063970066448982	-10.981943961795919	-2.4143005312448977
O	-0.025988753355101757	-10.650230661795918	-6.085296171244898
O	0.6905570666448981	-7.490423211795919	-8.054862151244897
O	-0.7980062123551018	-6.432465301795919	-11.399260881244897
O	-2.9876185333551017	-9.56472146179592	-11.405759581244897
O	-4.618831443355102	-8.675418801795919	-8.087932481244898
O	-4.1235341233551015	-9.96556976179592	-4.536976071244898
O	-2.779755543355102	-7.036985981795919	-2.572934681244898
O	-2.118956972355102	-8.93572236179592	0.6029616787551022
O	6.356345506644898	-1.951287441795919	-7.7239222912448975
O	3.0692959466448984	-0.5177377717959188	-6.589299611244898
O	2.9667130266448978	3.313145068204081	-6.973813911244898
O	6.617970076644898	2.870775288204081	-8.030632441244897
O	10.168874446644898	3.2966698682040816	-6.714214261244898
O	3.2698910566448984	-2.6197586317959187	5.377090108755103
O	2.696909606644898	-2.7036655217959185	1.656175058755102
O	-0.8389380993551018	-3.0121806017959187	0.2286077387551022
O	-2.4399179733551017	0.11825914820408112	1.5943477287551022
O	0.32180583664489815	0.9086730382040813	4.0558276987551025
O	1.013094466644898	4.497059288204081	2.976822698755102
O	2.916131926644898	4.7258949782040816	-0.3584169782448978
O	5.909003596644899	2.386608248204081	-0.3157656372448978
O	5.5248940166448985	2.1933029662040813	3.5049172887551023
O	5.669839386644899	6.036504338204081	3.8272190587551025
O	8.739748546644897	6.116323968204081	1.557786128755102
O	-1.4408888896551018	8.429384088204081	8.916497088755102
O	-2.9873382633551016	9.786276878204081	5.709149608755102
O	-1.4258796256551018	9.67452784820408	2.278823358755102
O	2.1619404566448983	8.807361358204082	3.222903868755102
O	4.032654456644899	8.75585991820408	-0.03238563824489782
O	1.604868976644898	8.236736908204081	-2.904145721244898
O	3.4196537666448985	9.79785132820408	-5.8895574312448975
O	8.272964516644898	8.332367448204081	-4.467432851244898
