67

O	-1.0323783977115388	-1.2933795923480769	-6.544661994003846
O	-0.8671995405115389	-1.7050606423480767	-5.220844674003846
O	0.262252859288461	-1.4898843423480768	-4.439842624003846
O	1.3935072492884613	-1.1709739223480768	-5.220823034003846
O	1.2333892092884609	-0.8003936723480767	-6.562702104003846
O	-0.03182620671153891	-0.5407579123480768	-7.084433654003846
O	2.732540019288461	-1.5122787023480766	-4.684804144003846
O	3.4619333592884614	-0.7713103123480767	-4.019912384003846
O	3.2014374892884616	-2.821609422348077	-4.843123374003846
O	0.5785905492884611	-2.1200432523480766	-3.201349524003846
O	-0.16124672971153897	-2.101141692348077	-1.9737653840038463
O	-1.358836026711539	-2.3068195423480766	-2.2255222440038462
O	0.44162319928846094	-2.090176392348077	-0.6642327000838464
O	-0.14226436371153894	-2.2886094623480764	0.4167167059961536
O	1.8062864192884611	-2.015175832348077	-0.5810365505038464
O	-0.8537817197115389	10.650991957651923	-5.5880521340038465
O	1.773129789288461	7.931212767651923	-5.226118424003846
O	0.064587278288461	5.503536507651923	-7.634267264003846
O	-1.923507860711539	6.422227917651923	-10.780642604003846
O	-4.347997580711539	3.5274593776519234	-10.189547654003846
O	-4.961247990711539	4.053203667651923	-6.438593054003846
O	-7.292078950711539	6.942096007651923	-5.592470064003846
O	-9.777379460711538	7.779374207651923	-2.846439024003846
O	-5.008938160711539	10.467771297651923	-0.8862301450038463
O	-6.852793850711539	9.141878547651924	2.1755237959961535
O	-3.968326840711539	6.413969767651923	3.215484545996154
O	-0.929659891711539	5.974907087651923	0.9706816259961537
O	2.6189230992884607	6.295956597651923	2.3115099459961534
O	2.552110529288461	1.7366808786519232	9.311608305996154
O	2.730998169288461	-1.6493852523480765	7.578752735996154
O	5.577730659288461	-1.0752624223480767	5.083223525996154
O	9.230022699288462	-0.08122220134807678	5.179817845996154
O	10.437798799288462	3.202231847651923	3.680810985996154
O	12.455307299288462	1.1614461716519233	1.1522302559961537
O	11.136573799288461	-2.090457302348077	-0.28511425700384635
O	12.461485199288461	-4.000947832348077	-3.298305474003846
O	15.030537599288461	-1.2300713123480767	-3.9216493140038464
O	12.343479899288461	1.4600278876519233	-4.203790954003846
O	11.14852839928846	4.187141047651923	-1.8193136840038464
O	7.572315349288461	3.298803477651923	-0.9495064910038463
O	7.115305819288461	6.007986407651923	1.6468003859961537
O	5.3984904192884615	-7.4673049223480765	6.135067235996154
O	6.3312005892884615	-7.708944432348077	2.4045384759961532
O	4.523520889288461	-5.744703322348077	-0.31976492700384634
O	1.8133472892884612	-7.935765762348077	-1.9114848840038463
O	2.7143597192884608	-10.441831672348076	0.8246013159961536
O	1.490631279288461	-11.751595672348076	4.176340135996154
O	-1.005616840711539	3.077712527651923	5.769680485996154
O	1.3551799092884609	0.9579846306519233	3.7886717859961543
O	2.5978363492884613	2.1624822876519234	0.3844839959961537
O	-0.6742831297115389	2.3548634076519233	-1.5472927710038462
O	-2.879708760711539	2.0858451476519235	1.5008160959961538
O	-5.074284520711538	-0.7662863323480766	0.3017454899961537
O	-3.3216186807115387	-4.193687422348077	0.42028152599615365
O	-1.575463463711539	-4.669426562348077	3.7578169259961536
O	-3.728353370711539	-1.7933119023480766	5.138029805996154
O	-6.947827710711539	-3.5364300223480774	4.002498555996154
O	-5.760832600711539	-6.801578492348077	5.599878815996154
O	-14.51306750071154	-1.5514636823480765	-0.3602337170038463
O	-11.734376000711539	2.660382427651923	-0.6268854738038463
O	-10.80211130071154	0.6925596207519232	-3.7577505940038467
O	-8.682547600711539	-2.428352542348077	-3.8655534640038463
O	-8.672897070711539	-3.3407169023480767	-0.1721731420038463
O	-6.762661400711539	-6.564168822348077	0.0930648819961537
O	-4.574859190711539	-6.951651742348077	-2.949159704003846
O	-4.009274630711539	-10.689331272348076	-3.2975531740038466
O	-3.837904750711539	-11.686835672348076	1.8639329059961536
