20

O	47.80149636694682	13.586447893108666	1.9902966323249212
O	45.90342341437872	8.956032690850376	-0.23650232993537657
O	45.57921141096383	15.214779434537663	3.502457828308059
O	47.90364250368709	16.33373339971832	3.7525204048921523
O	43.99760851846767	12.688951207932263	1.129838117101488
O	46.672541521866265	10.052737492172445	-0.5075417404245846
O	46.62258656453182	16.489193367501095	5.706187109515493
O	46.3756157627648	13.9309948150782	5.5627418179919115
O	45.60996611108135	15.0808602933755	5.2547713094395965
O	46.65909419131474	11.108315165292165	0.38107727369379507
O	44.84121730149299	15.840807357976693	6.12630508003411
O	45.97006757624149	11.056656219137526	1.558077604046665
O	45.259766867923474	9.93251897928223	1.783013918502328
O	45.74695471523746	8.79955583783976	1.1367312637631697
O	45.38440746875849	12.226031504003295	2.046605402013573
O	46.110728045028935	13.371939190117978	2.1637858820256515
O	45.220480493065075	14.357743465143182	2.4799608318801942
O	44.32658016229898	14.298062006754588	1.440470892471935
O	45.69125397973137	16.62656669210687	3.4315269803964177
O	46.838890915850634	16.676187286604982	4.407383145460432
