28

O	44.31175394808384	14.357345177614436	1.2470240193197268
O	44.79491865702828	15.50088933087302	2.4510680140563155
O	45.85622281845633	14.858002979164368	3.028494404287005
O	45.87469778976825	13.50947616658559	2.824786504562547
O	45.424134561753334	13.145383370538921	1.551645664853531
O	44.36170632900565	16.897357907099554	2.544315082809444
O	44.85700574143429	17.637502021647954	1.6760013348332299
O	43.87975869757253	17.54306434107758	3.651798254886287
O	45.56298129389145	11.873494938423054	0.9292958729577556
O	46.84996602077978	11.412723506169202	1.0129828313886673
O	47.28261940327769	10.641034734790695	-0.0619643821220448
O	46.452113667953626	10.311372910982218	-1.0923582867900148
O	45.11154665171972	10.564434949416018	-0.9109945589327033
O	44.66366547213751	11.020917639611383	0.36521958687706757
O	46.6793194587379	15.521320359301713	3.960549855806707
O	45.98763091543309	16.28038262956231	4.9105505330907135
O	46.570032814881316	17.546034016269708	5.331757179300746
O	47.1434387222232	18.239979943958303	4.476823350445727
O	45.97097922758196	18.19644261444336	6.383210023784216
O	48.45430291797329	9.954416639502288	0.3448541493351751
O	48.14717121292656	8.975952992387185	1.324141409333155
O	47.86828945360321	7.752640815496688	0.5090722331405528
O	47.58032123893806	7.7458333680491185	-0.824791002297733
O	46.566950544987726	6.8825792947863516	-1.242394935524695
O	46.68462312879639	5.623432329393904	-0.655272422195754
O	47.2720716272275	5.505872685174187	0.605391958091622
O	47.374763525194396	6.70430819312719	1.2785414322895878
O	46.614472410809284	12.101174280232277	3.8607672541478086
