40

O	46.63901224368757	13.136028518029024	3.513563012474891
O	49.60671313071722	11.765819999978683	0.1660013008499055
O	48.364184804088524	11.85297281360382	0.9178082302904293
O	47.472328209771014	14.42124062417388	3.3271756234031558
O	48.82181795756186	11.739530906919507	2.290237489194388
O	46.69187014463848	15.47948914264208	3.980897652677257
O	46.87935201115591	8.415703552062936	-2.271974751745054
O	44.47110688111652	11.845889906043478	-3.410518545077551
O	45.95012281122422	15.09300061268081	5.156090770864327
O	43.496945115163264	11.423330368583402	-4.305558268759988
O	44.41571588986032	8.324535718500249	-1.4360076688196068
O	46.3558949419113	13.44628966162765	5.216884240091104
O	43.71853625150919	10.709022967945	-5.449327937460259
O	47.727894259202195	13.36222314847082	5.693919766135231
O	47.71632083153108	9.714204261474729	-0.5166544701474249
O	45.54508754352305	12.40710168526315	5.647273711543067
O	47.538320422884276	10.307775083263085	0.6657625789399564
O	46.292907448543566	10.383836058220325	1.1558432003416774
O	46.48188372352616	16.675591673459436	3.59483934656933
O	45.18276775611733	9.962836699697037	0.4037720559834268
O	45.293673778895716	13.302495961042744	2.9764942486764356
O	46.40123304972176	11.425774774313709	-2.6608278710876476
O	45.047675042115614	14.580758790616683	2.552779073146301
O	44.58635658695642	14.832859889460728	1.2658353603043428
O	44.56013059571848	12.060403844789588	-2.038906960565873
O	44.54271404426934	13.810580534386483	0.29590864297938424
O	44.08750706274673	12.740042750223518	1.0591199292401363
O	44.391114934695075	12.453614486200594	2.404246270653343
O	45.01937179058678	10.706229558999656	-5.937545420070798
O	45.79908836695739	8.322729923825724	-3.200442701844736
O	46.03951898624048	11.11522249521067	-5.121774012515441
O	43.326761976185985	9.157639575202483	-1.8730144160983402
O	45.780123003443805	13.94502264097276	-0.4903390314782845
O	46.29389114204552	12.460532955856436	-0.43554698551057314
O	45.778251390241905	11.633378361123203	-3.8544851760622247
O	46.711916656083865	8.823562426971527	-0.9274926799354564
O	45.876534203522645	12.19515598731385	-1.7774440564616256
O	45.3750867824449	9.061593629439315	-0.6458936993247217
O	44.84301248484901	7.3743292356294	-2.468451114446374
O	47.50839166615901	12.958892921682507	0.06135876055297018
