69

O	-4.553500536058824	-1.155448290999999	6.882079272215686
O	-4.942744986058823	0.04892323400000109	5.664432552215686
O	-4.445277546058824	-0.35027871099999885	4.316370602215686
O	-4.323349726058823	-1.6878633709999988	3.9403234722156864
O	-3.662015506058823	-2.525480050999999	4.946510662215686
O	-2.979350562058823	-1.708851560999999	6.040731822215686
O	-3.146986016058823	0.2026217280000011	3.2849573822156866
O	-3.598258966058823	-0.7615026809999988	1.9329198922156863
O	-4.094661716058823	-1.8519864609999992	2.5723768522156862
O	-4.250650986058823	-3.112105330999999	1.7941749322156864
O	-3.628756316058823	-4.101348290999999	2.2951222322156863
O	-5.592251976058823	-3.3865152309999993	1.4882654122156862
O	-3.4608927760588233	-0.543668210999999	0.5227972972156862
O	-2.553538259058823	0.4512156220000011	0.14768412921568624
O	-1.9228232290588232	0.4483455210000011	-1.1548108377843138
O	-1.0350272770588234	1.315755072000001	-1.3809101477843138
O	-1.5764262130588231	-0.7840760309999989	-1.6645479777843137
O	-2.315157471058823	1.311588918000001	1.0067279872156862
O	5.887604413941177	-5.993685200999999	8.347223462215686
O	3.1824243039411764	-6.782513300999999	5.809123422215686
O	0.4289683339411767	-5.032055600999999	7.763591652215686
O	0.16188190394117674	-4.838108190999999	11.600349722215686
O	-1.2998609760588233	-1.2998305209999992	11.330293422215686
O	1.1251069939411766	0.18054563600000106	8.789100782215685
O	4.506931743941177	1.049943797000001	10.291040372215686
O	7.265007893941177	3.587656679000001	9.671395692215686
O	9.234529013941177	-0.9823944109999988	6.667859652215686
O	10.234155013941177	2.132527979000001	4.712714332215686
O	7.836836563941177	1.342769799000001	1.480202630215686
O	5.521258553941177	-1.6786617909999992	1.5771940222156862
O	5.5680320639411764	-4.335183750999999	-1.1486831677843137
O	5.557044923941177	0.06166996700000105	-8.239686527784315
O	1.858471793941177	0.9478545300000011	-8.157865507784313
O	0.287688133941177	-2.473460580999999	-7.407505877784314
O	0.2089031439411766	-5.9325634109999985	-8.953352457784314
O	1.7628241039411767	-8.937793390999998	-7.197007107784314
O	-1.7313219140588232	-10.453211000999998	-6.935922977784314
O	-4.787758426058823	-8.296035620999998	-6.318351147784314
O	-8.261744986058822	-9.461182600999999	-5.299066047784314
O	-6.9948121060588235	-13.075562900999998	-5.1026911777843145
O	-4.298844836058823	-12.182062100999998	-2.5525856677843137
O	-0.5362607260588232	-11.691444700999998	-2.8417976377843135
O	0.08019569394117676	-8.030262631	-2.0492906877843136
O	3.7845511539411767	-8.129230440999999	-2.9285752677843138
O	-6.700581196058823	-0.8406268209999989	-8.041832587784315
O	-6.076073896058823	-1.1347704409999988	-4.309794837784314
O	-7.9843069360588235	1.580447791000001	-2.385922547784314
O	-8.839673746058823	2.899341799000001	-5.886433007784314
O	-7.838727906058823	5.597910669000002	-8.367461557784313
O	5.693617003941177	1.255675704000001	-3.1919558877843137
O	2.314987413941177	-0.334949550999999	-3.5359116477843133
O	1.191806793941177	-2.9953183109999992	-1.0432244777843138
O	1.1991893239411766	-0.9985361309999988	2.1848058622156863
O	3.1767963039411766	1.9264897390000009	0.7825048712156862
O	0.7768109839411768	4.682869689000001	1.8339776422156864
O	-2.412866254058823	4.8445204990000015	-0.35718857578431373
O	-1.4936237200588232	4.735980949000001	-4.064742017784314
O	2.0865068039411767	5.568519929000002	-2.9996067377843136
O	0.9041776739411769	8.706923289	-1.0970046177843136
O	-1.2350706430588232	9.740719049	-4.090084057784314
O	2.1383448039411768	12.604706799	6.856841482215686
O	4.732796953941177	8.276632909000002	7.122300302215686
O	1.2586041739411766	7.408553169000001	8.439824502215686
O	-1.8764078000588231	7.057352229000001	6.369872742215686
O	-0.6967224560588232	8.670856379000002	3.1396136822156864
O	-3.6685733360588233	8.654670529	0.8440579602156862
O	-6.102161946058823	5.992137279000001	2.0168104422156863
O	-9.477732996058823	7.192156329000001	0.6875239622156862
O	-7.6529271760588236	9.210010289000001	-3.8146787977843135
