67

O	-4.78509004622	0.4282198139079999	2.4809062406200004
O	-4.33214081622	-0.864287811092	2.2612230706200003
O	-3.0481139462199995	-1.197878191092	2.7928644206200004
O	-3.0075103562199996	-0.949150881092	3.9744542106200003
O	-5.245025346219999	-1.419757231092	1.3046433196200002
O	-4.53252420622	-1.656303021092	0.013835901620000257
O	-4.25092240622	-0.431658321092	-0.5072726293799997
O	-3.3699651362199994	-2.346364471092	0.16509414462000022
O	-3.2320572162199994	0.30893680190799994	0.22643334162000023
O	-2.17592311622	-1.5842052110920002	0.4350766336200002
O	-2.1816041452199997	-0.24755613309200009	0.8706145756200002
O	-1.4029601752199996	0.2977132379079999	1.8567721606200003
O	-0.3497312162199997	0.2529012589079999	3.08761352062
O	0.04655666378000034	-1.105260611092	3.41348689062
O	0.7679316937800003	1.400662977908	2.99765483062
O	-0.7564778292199996	0.831576907908	4.59244830062
O	-2.8021154362199994	-2.600767901092	2.7780496406200004
O	-0.41577016621999974	-4.690207011092	-10.92100767938
O	-0.2777043162199997	-5.971884471092	-7.35568118938
O	-3.9497596062199998	-5.152036641092	-6.60024225938
O	-6.9098034862199995	-5.352122701092	-9.01982640938
O	-8.568069596219999	-2.309758391092	-7.399104059380001
O	-5.495541846219999	-0.027614225092000066	-7.20388418938
O	-4.4344449062199995	1.556032928908	-10.48044867938
O	-2.7477549962199994	4.766089278908	-11.58539187938
O	1.8040050737800002	1.155332465908	-11.36017567938
O	3.04939309378	4.564949058908	-10.20877467938
O	3.79985713378	3.439952298908	-6.33408960938
O	2.94337339378	-0.07858409809200007	-5.21910659938
O	5.5663956937800005	-2.372479231092	-3.6478692793799996
O	9.254185363780001	2.4201769689079997	2.06416500062
O	6.48767875378	2.295080398908	4.64262668062
O	5.8057727337800005	-1.4558793010920001	4.7571907506199995
O	7.580974003780001	-4.676443951092	5.48838532062
O	8.26085039378	-7.2882449410920005	2.7952336006200005
O	6.066057953780001	-9.703929681092	4.79310570062
O	2.9782969137800004	-8.504299521092001	6.65116762062
O	0.16850291378000026	-10.607069681092	8.088510450620001
O	1.8636678537800002	-13.779581881092	6.71419726062
O	1.8583628037800002	-12.504773281092	3.1174102306200004
O	4.49006787378	-10.968322881092	0.8300503626200002
O	3.42845893378	-7.358843861092001	0.2798008846200002
O	6.529942793780001	-6.330973681092	-1.5885128693799997
O	1.0468005437800005	-1.6698490910919999	10.18453864062
O	-1.0060061722199998	-2.1034164710920003	7.1117048906199996
O	-4.29722997622	0.03145547090799994	7.4956085006199995
O	-2.76149673622	1.274113830908	10.63785242062
O	-1.0067864252199996	4.340261918908	12.00482692062
O	5.61201692378	3.193549348908	-1.5378932393799998
O	4.0071441537800006	0.7812052035079999	0.7904047766200002
O	2.2842146637800003	-2.276796471092	-0.5946525393799998
O	-0.5361055862199997	-0.626583871092	-2.7444009593799996
O	0.9691250737800006	2.806957958908	-2.56390385938
O	-2.0836194562199997	4.741641558908	-1.3249711293799997
O	-2.8030745962199997	4.273285448908	2.3952310206200003
O	0.3671800237800005	4.5384516389080005	4.38122987062
O	1.9685992937800003	6.391640898908	1.3361542046200001
O	-0.8741174102199997	8.938848718908002	1.1534084136200002
O	-0.5135458362199996	9.551042768908001	4.89793562062
O	-3.8155425862199994	8.852200048908	-7.45224998938
O	-6.89920596622	7.046124088908	-6.16316340938
O	-7.54680288622	6.144892578908	-2.5721453193799997
O	-4.868267106219999	8.191826748908	-0.8282823193799999
O	-5.31734580622	7.616899948908	2.84687525062
O	-7.27292859622	4.5191586189079995	3.3848824706200005
O	-8.88197206622	4.896757148908	6.83724909062
O	-4.90802822622	7.4817679889079995	9.02603187062
