31

O	47.20414652718668	8.275475378511816	-5.433994080006061
O	45.87627651178767	8.493386452389924	-4.832324432092351
O	44.90772921395918	9.037559792154044	-5.388888195610825
O	45.4408775808933	7.616228259456214	-3.8374211705740127
O	44.39840447865231	6.637684201538647	-3.9463466595995786
O	43.35281214169056	7.539780912239558	-3.280962161580085
O	44.0064105056993	7.500888588979551	-1.614800300041412
O	45.81665110194244	6.904747102688006	-1.132312396840451
O	46.98539187460116	6.122241058252465	-2.219918605995341
O	48.126370201083596	7.043311117101256	-2.4057091304523173
O	47.876954421258446	8.476110547976592	-2.239569407232028
O	47.25182379455705	8.801279136869468	-1.0292657317199847
O	46.76066597486203	10.056228056286258	-0.7035375204420626
O	47.94155619908466	8.345557206530035	-0.05723063749199042
O	45.77755919530551	10.596149078099632	0.23023598421697677
O	45.727799429019676	12.076880594498773	-0.2524020038390047
O	46.32125534125415	12.11634000728079	-1.6248346168946028
O	47.82445910225313	12.056585866492323	-1.4709615454615292
O	47.98390476969283	10.976410953327106	-0.3914434664118671
O	45.82984024204999	11.015979132159458	-2.518875562830573
O	44.49765186199852	10.670670448837797	-2.622927412255981
O	43.49187612674937	11.185363586674457	-3.5272039679274005
O	43.82226971666987	10.463626040755347	-1.612744679549401
O	43.21234085355997	12.512124999481365	-3.425426271426968
O	42.768291492531375	12.964851722296153	-4.630836862397178
O	42.533902880075495	12.14896373129479	-5.730534737834967
O	42.222620611721794	10.832521617994875	-5.391318146110187
O	42.49205642690491	10.461831849498513	-4.106989208048576
O	44.10428941296853	13.569654910038736	-2.7863659452671925
O	44.9122993818347	14.230881940567535	-3.546139709099961
O	43.316575939533976	14.487063393351601	-2.0540738127394818
