18

O	46.78914554549475	10.923317636985516	-0.4652248186309489
O	47.62649956402193	11.566571197172271	0.5003453777765348
O	46.669920082757116	12.33479985897938	1.3623215216879245
O	45.47055864777565	12.843482502091717	0.8585349493467795
O	44.72334581051946	11.754038980208051	0.18047007545233562
O	45.62782109217456	10.523741421104278	0.28544949538841546
O	46.57841050863043	13.04820536287789	2.925965196745544
O	45.47126658943064	14.244174871776776	2.5780124859700106
O	45.15092795664279	14.093642338279901	1.2843742927874802
O	44.24937146258389	15.069118927062659	0.6355413113872928
O	43.15394170749835	14.717446473444157	0.15479570797450393
O	44.95649333845109	16.02696916339038	-0.10125041195850137
O	45.674869223660636	15.55615842267679	3.15614522858481
O	45.6990607478836	15.532453367931938	4.536204056744232
O	45.40571502451181	16.736730440410554	5.261995597184638
O	45.43092559061086	16.828820020740995	6.531395115002631
O	44.342552645444684	17.507115907079363	4.770954894453201
O	46.20529988220854	14.523978741493089	5.029484939200757
