30

O	42.405750355869856	14.889610721135904	-1.6885924309202682
O	45.217375261090346	15.669438053422756	1.131567603847257
O	44.1477375301511	9.099395085575782	-0.9496236424691524
O	45.17505797803863	8.331778711667432	-0.878497232625616
O	45.854991756660034	8.454795270809985	0.4708925956712209
O	45.4710351981263	9.265990830066759	1.4023030255598057
O	43.97192473141296	14.2375731861939	-2.1938551488529114
O	43.88886279969078	10.272525213179367	-1.8414579222667413
O	42.9055130617373	10.98133855720868	-1.137789481247279
O	42.91625958460887	12.336372928149398	-0.9734347554598264
O	44.075504648847065	13.024249872313668	-1.3077629773750115
O	45.15010580699341	12.276278364432393	-1.6540764437234294
O	45.12211726413787	10.928924878145786	-1.9733623469741968
O	46.469501258031734	14.533421511148712	0.6341573189503622
O	45.78761688518085	10.6459247437546	1.7019626854715297
O	46.8335940861767	11.02716324874117	0.9255693326034695
O	47.108028454434134	12.336037753109471	0.9947963118560441
O	46.15579666895708	13.239569142494368	1.3239228324834258
O	44.98638513699981	12.828810246017465	1.8605367864393147
O	44.68877610822558	11.481402046559126	1.6024391970540783
O	41.57192206440446	14.813552378528327	-2.9767209683393183
O	41.538458491103576	14.064540136911738	-0.5468460520626195
O	42.669614637779226	16.390391806380578	-1.086574636837116
O	45.27990198510584	16.74436142551808	0.11724149578495169
O	45.56747924205788	16.086414524742267	2.7131978720126706
O	43.79986052682906	14.805026550767154	1.3162222085976891
O	43.96285349726088	13.71631548240781	-3.456396505926456
O	45.03888506353096	15.016782366375134	-2.208897095627046
O	47.067785802863504	14.449145318799069	-0.5600410749237668
O	47.580056221277246	14.779181441318745	1.4451178215978597
