40

O	45.48835106172913	14.984539674261939	2.05585077672624
O	43.84306825133011	13.827732926912335	-1.3123344141415627
O	44.56311013633639	12.610894335617067	-1.7423576426830953
O	46.50124852473254	15.77749564320412	1.3224138193765347
O	45.98204795430157	13.03972790418676	-1.6588685371508243
O	47.63484273098075	16.12290566685354	2.186649117395602
O	46.8174563639665	8.932731058832886	-3.732982059864164
O	47.513852690828784	15.757905709004714	3.545806766595553
O	48.40671798178512	8.811386943857162	0.17757789826645887
O	46.18177757338505	14.69961944903482	3.6869401068535774
O	48.57834239330598	7.518171888670425	0.6619785775182647
O	45.14310961064119	15.121414498192314	4.631264661099156
O	43.16645556354863	11.077658907780608	-3.663417420517189
O	46.69059901063045	13.324270357656635	3.910768364446725
O	43.99039375635644	12.179777152811333	-3.3305375028400954
O	44.30568910296677	12.913427046338803	-4.482860885635946
O	48.80269577100266	16.251210312154676	1.6753127748260965
O	44.708094704957915	12.107257504013312	-5.549960584444524
O	45.57706252004106	13.611455129813308	1.4444590565788635
O	46.329507225058634	10.918162614459524	-2.962993805981994
O	46.80743221244699	12.929955484162097	1.4476357735400365
O	46.773151234170896	11.573768469028115	1.103710478505552
O	45.63282876780605	8.946192417209883	-3.162491258136371
O	45.620485066814105	10.878212595283276	0.9334418465810321
O	44.50660074721449	11.636600144352434	1.304453120270911
O	44.54141131949437	12.816658049783518	1.9710024424655561
O	48.051094622944674	6.419467335450662	-0.01009004010799508
O	47.92104351823381	10.172729086958622	-1.7470566621168304
O	47.911098429227465	6.554484701304767	-1.3576040484016891
O	47.684829986294325	7.779014517244059	-1.8682574983809586
O	45.17012411208464	9.66794044169971	0.22375386773007744
O	44.701547464023584	10.141436528190418	-1.1306719258259283
O	47.55409766149385	10.141028572723604	-3.2289116927302954
O	43.27666166033734	10.386724950152384	-4.881293006943799
O	45.617323047702804	10.083088777676942	-2.2616895997201967
O	44.454769305350744	10.734308412694244	-5.5571145467014
O	47.80421321864381	8.884843927429749	-1.0757755388657175
O	43.97180920750145	11.299151761077308	-0.8677855097183604
O	43.0814938424959	9.022751656623559	-4.98672745225801
O	49.30785973904135	9.778720645708024	0.5487218549527668
