62

O	-5.075542508469697	3.011316286424242	3.0847640758787884
O	-4.5768625384696975	0.646855366424242	6.281533625878788
O	-4.268834598469697	2.236924673424242	-3.0506516741212115
O	-4.753079058469697	3.6292514764242423	4.248544285878788
O	-6.885331158469697	0.937109586424242	1.8367752268787885
O	-4.681165238469697	2.8240316444242417	5.3542684158787885
O	-4.878530788469697	1.455562836424242	5.1723845358787885
O	-5.622050538469697	1.111141774424242	4.053329285878789
O	-5.076538898469697	1.633916110424242	2.8326032808787884
O	-5.507687488469697	1.063671485424242	1.4964830618787883
O	-5.037929718469697	1.476091208424242	0.1854030158787885
O	-4.018593498469697	1.097198387424242	-0.9240455841212114
O	-3.649125098469697	1.6409712414242419	-2.1689137841212114
O	-2.9124428494696972	1.1204074534242419	-0.2215649541212117
O	-3.314018116469697	0.868504446424242	6.937052345878788
O	-2.662236009469697	0.970099886424242	-2.9015480441212116
O	-5.660663218469697	0.3051821864242419	7.165029495878788
O	-3.360916376469697	1.8255704294242419	8.049542345878788
O	-2.742455566469697	1.4115722184242419	9.228665075878787
O	-2.270639587469697	2.370377599424242	10.12080375587879
O	-2.887118298469697	3.6139634264242417	10.00789087587879
O	-2.942844572469697	4.120887786424242	8.713662935878787
O	-3.160012979469697	3.165281096424242	7.727625805878788
O	-6.208279208469698	1.579566638424242	7.649936175878788
O	-7.070072518469697	2.257499477424242	6.835608155878789
O	-7.3996853284696975	3.5496251064242417	7.233559485878788
O	-6.698015298469697	4.167743076424242	8.262209505878788
O	-6.199457178469697	3.307689476424242	9.234332625878789
O	-6.077828668469698	1.950996653124242	8.955290255878788
O	4.721736091530303	9.191028516424243	9.696361345878788
O	8.708817091530303	6.126936646424242	10.925453605878788
O	-4.669961988469697	-8.721812953575757	1.1996935758787886
O	-5.017900898469697	-5.997603093575758	3.8634157758787886
O	-5.370940168469697	-6.438040243575759	7.635851735878789
O	-3.280068346469697	-3.3670614035757582	8.347436745878788
O	-0.49285746846969714	-3.863136033575758	5.787832985878788
O	2.075713111530303	-6.392551103575758	6.905090925878788
O	5.770536531530304	-6.9884672735757585	6.324353815878789
O	3.5169622315303033	-10.404482253575758	2.1869945348787887
O	1.073990181530303	-6.631270733575758	-2.302539024121211
O	-0.906435128469697	-7.471064203575758	-5.4767646641212115
O	1.636964341530303	0.15647268642424206	-10.598470834121212
O	-2.088759276469697	-0.721316473575758	-10.29691653412121
O	-12.907827608469697	-3.3851657935757578	-6.400662744121211
O	-7.050436408469697	-4.574878183575758	-5.969427534121211
O	-4.939114178469698	4.277814636424242	-6.156152094121211
O	-4.049432108469697	6.663668846424242	-3.331871524121212
O	-3.403599005469697	9.084367666424242	-6.202885614121211
O	0.5496535915303031	-2.0581467235757582	-6.467136144121211
O	-2.395003265969697	-3.210163723575758	-4.352519114121211
O	-0.914719558469697	-3.0343925135757583	-0.9195122041212116
O	2.6156376815303033	-2.502324883575758	-1.998508604121212
O	3.1562186915303028	0.6877722164242419	0.07454955587878853
O	1.536906731530303	3.767132336424242	-1.5607070341212115
O	1.9857255115303025	3.8439912564242418	-5.214335844121211
O	5.532491081530303	0.17773826642424195	6.790784855878789
O	3.385252441530303	2.958655094424242	5.292403865878788
O	5.577479481530304	3.746645516424242	2.2357117248787883
O	3.9110123315303027	6.641868096424242	0.5273312058787885
O	0.29528081153030294	6.813585886424242	1.5930452738787886
O	-0.720703338469697	10.441263576424241	1.0877040758787884
O	2.157380811530303	11.182936346424242	-3.2256060941212112
