18

O	46.16724959274611	10.45674314143039	0.012325219644789165
O	46.02501193582237	10.64082359901073	1.358612010023874
O	45.4992407645961	11.921263303168628	1.8434249027137692
O	45.25327690895488	12.947185298058672	0.97431814215245
O	45.219519497844466	12.496305735733344	-0.41685774686249744
O	44.953290989498846	10.982454062441207	-0.47297704454669365
O	45.805779432349254	12.771719336681398	3.297781848848313
O	45.70707448838644	14.354755687487073	2.5897258136413237
O	44.83857517673459	14.103844934756422	1.5646950170223342
O	44.19883988476027	15.186657170001867	0.7781539364785592
O	43.052784908701554	14.844457923391625	0.3234191091762151
O	45.03146616128524	15.660885833145162	-0.2574510752042656
O	45.7778879283763	15.622094653279811	3.254901617175122
O	45.83412030227638	15.560021735357338	4.649036215016423
O	45.41739202936614	16.63777555546938	5.51934605151445
O	45.34878239539613	16.441975694619583	6.771581351379276
O	44.24826025393922	17.275699268097924	5.091421490189616
O	46.302494826350575	14.519560238392645	5.124603516111067
