22

O	46.66564932860586	16.554047958735318	5.524614157030718
O	46.91440551479758	16.475097555383208	4.204598240780637
O	47.76209537503382	16.033500565321535	3.3138432443913075
O	45.64342396240605	16.66431254486685	3.402198696129557
O	45.33552932309758	15.291293867741183	3.603466813801554
O	44.917085580492355	15.914850945390025	6.280594452392554
O	45.35823447553276	14.290183190731163	2.6811765690187457
O	46.390802687808275	14.010486256406708	5.603366174742993
O	45.734984705424885	13.030134118553216	2.9924261520869404
O	45.73885450629551	14.983080146889137	0.679388418397556
O	45.15686769344411	11.981870196565174	2.3686879247209007
O	43.90235720586349	12.227505220229483	1.802386617400864
O	43.85820923705382	13.450235009627534	1.106946208359143
O	44.775530036343646	14.384548207298295	1.4120531030519397
O	46.02962688383707	14.327784920184936	-0.5763559721723901
O	45.97055555413787	11.063178091780582	1.6330713100907195
O	46.68941454942533	11.193282186801012	0.44547488432682325
O	46.38550102555682	10.340104496524189	-0.6166346020280589
O	46.001940497561066	9.06545231363606	-0.3063338108378266
O	46.00393291183595	8.813591723890948	1.0618733899583228
O	45.45960347171959	9.809396041499461	1.8274069257455032
O	45.58507032313275	15.156724470107337	5.3253869787545085
