69

O	-6.077739545921569	4.749879289549021	2.448917753509804
O	-4.755308665921569	4.41188780954902	2.508446023509804
O	-4.262177625921569	3.3384872195490205	1.6391718135098037
O	-5.084550335921569	2.7576041395490205	0.7147051065098039
O	-6.494378205921569	3.0580086695490207	0.963592213509804
O	-6.69132283592157	3.4815310595490203	2.429066703509804
O	-2.724164874921569	3.1030091595490203	0.9240058135098038
O	-3.328469365921569	2.3967799015490208	-0.5433545444901962
O	-4.480076725921569	1.8271329035490205	-0.07726637659019611
O	-5.272262065921569	0.8608149585490206	-0.8766802044901961
O	-5.9058278759215685	0.02674225954902054	-0.1416678284901961
O	-6.14562839592157	1.5015808675490205	-1.7807196864901962
O	-2.574346840921569	1.8459711795490206	-1.6303367964901962
O	-1.193729286921569	1.7878816605490204	-1.4274891164901962
O	-0.31847710592156897	0.8626324995490205	-2.113421016490196
O	0.8952612040784311	0.7644861615490205	-1.755168696490196
O	-0.861375965921569	-0.4197984904509795	-2.245960766490196
O	-0.7298361959215691	2.6125242765490206	-0.6319598364901962
O	-3.912003225921569	-3.819383140450979	10.528198743509805
O	-5.1298632659215695	-3.979656160450979	6.944853193509804
O	-6.222583015921568	-0.31282851045097937	6.802523403509804
O	-7.71263584592157	1.7375331095490205	9.672607003509803
O	-5.912321165921568	4.878583499549021	8.472364333509804
O	-2.4440337049215692	3.3570004595490204	7.844872553509804
O	-0.3958301959215691	2.7047037995490206	10.959605643509803
O	3.2897275740784306	2.6376565495490203	11.903799943509805
O	2.2977359340784314	-2.991628760450979	10.814061443509804
O	5.840021874078431	-2.2454568304509794	9.621849653509804
O	5.036266234078431	-2.847883310450979	5.643625333509804
O	1.4723590240784308	-3.5988029504509793	4.548903543509804
O	0.6188972340784309	-6.682742890450979	2.485446513509804
O	6.387925994078431	-6.745324730450979	-3.544066986490196
O	4.804295254078431	-3.995197980450979	-5.646864836490196
O	1.1556832940784307	-5.16917221045098	-5.765046066490196
O	-0.8112887859215692	-8.20054179045098	-6.895655616490196
O	-2.696063569921569	-10.39784207045098	-4.418444276490196
O	-5.94948536592157	-9.343957870450978	-6.124736616490196
O	-6.443705775921568	-5.82424917045098	-7.456052636490196
O	-9.705337215921569	-4.232068790450979	-8.575685726490196
O	-11.62232248592157	-7.37075603045098	-7.491295846490196
O	-10.322612805921569	-7.147512810450979	-3.905360746490196
O	-7.637629575921569	-9.09589127045098	-2.026464236490196
O	-4.925361775921569	-6.57752107045098	-1.212348056490196
O	-2.482452345921569	-9.112007070450979	0.1969413005098039
O	-1.5743195679215691	-0.3439984204509794	-10.383978156490196
O	-2.805905850921569	0.7453077755490205	-6.954828446490196
O	-2.707660329921569	4.5689917795490205	-6.599014846490196
O	-0.977299765921569	4.429058299549021	-10.022826536490197
O	2.4693628940784307	4.644528989549021	-11.625214056490195
O	5.44976181407843	-3.7580711704509797	0.5986584605098039
O	2.4434161440784306	-3.1118577304509794	-1.5419829864901962
O	-1.045043399921569	-3.2332673104509793	-0.011415255490196119
O	-0.817254655921569	-0.40990884045097964	2.519752283509804
O	2.9669837240784314	-0.11586793045097954	2.369135393509804
O	3.137865164078431	3.6248031295490204	1.705644143509804
O	2.153716654078431	4.58888010954902	-1.911699226490196
O	3.980540264078431	2.3557269445490205	-4.408180826490196
O	6.33394288407843	1.3671240215490206	-1.5465325464901962
O	7.163463274078431	5.058448869549021	-0.8280232004901961
O	7.73226285407843	5.674099059549021	-4.551185436490196
O	7.78219893407843	10.569672109549021	6.194585383509804
O	6.10963179407843	6.215908469549021	8.125318173509804
O	2.9115947440784313	8.146913879549022	7.242602823509804
O	1.629281624078431	8.79256265954902	3.770299103509804
O	4.6668176540784305	7.80827776954902	1.7220851035098037
O	3.698741664078431	8.465639939549021	-1.8466823164901962
O	-0.03574271592156908	8.54539854954902	-2.173266166490196
O	-0.7202081959215691	10.68179534954902	-5.239877616490196
O	3.4764701040784307	9.06478169954902	-7.981004206490196
