86

O	-5.804965348710528	4.581321698868421	5.117477325476315
O	-6.596924678710529	7.768954259868421	6.247249385476316
O	-8.526521398710528	8.425854539868421	4.903256945476315
O	-4.950586117710529	8.115291929868421	5.561243635476315
O	-4.9498934477105285	5.546968109868421	4.877782915476315
O	-4.939755890710528	9.47745773986842	5.181511805476315
O	-3.7513958557105287	5.141065909868421	5.373924155476315
O	-4.104780850710529	7.7804873098684215	6.688980075476316
O	-4.033781207710529	4.757511839868421	6.7738386454763155
O	-4.8420691357105285	3.6268149098684206	6.935357065476316
O	-5.999105848710529	3.768220108068421	6.243089615476316
O	-6.9477773187105285	0.7690556498684207	4.973442565476315
O	-7.279890328710529	8.14912938986842	4.999627805476315
O	-6.527579208710529	7.1496153098684205	4.206843695476315
O	-5.295551078710528	6.90137083986842	4.394845615476315
O	-4.146788082310529	2.3818067598684207	7.307437035476315
O	-4.6026888957105285	1.4505536698684205	6.152735315476315
O	-5.768461728710529	1.2192367398684207	6.697320425476315
O	-4.933600028710528	2.013650579868421	4.852072575476315
O	-5.819764058710529	1.1931680698684208	4.093160325476315
O	-6.519288938710529	2.044661079868421	3.146689965476315
O	-6.808999678710529	1.4663987698684209	2.123779571476315
O	-7.324963278710529	3.0970057368684207	3.6003691054763154
O	-7.618784038710529	4.25146769186842	2.868466625476315
O	-8.792729668710528	4.993935799868421	3.3329521254763153
O	-8.80478978871053	5.101175959868421	4.605537695476316
O	-7.771105998710528	3.652729028668421	1.4892334833763152
O	-8.97478749871053	6.154940959868421	2.4896096354763153
O	-8.304796118710529	1.3338327098684206	4.681907215476315
O	-9.063821668710528	0.9235526998684209	3.596300995476315
O	-10.25905634871053	1.5245424798684208	3.3046971754763153
O	-10.848107298710529	2.2873088198684206	4.278359305476315
O	-10.229784518710527	2.3519411098684206	5.520794125476315
O	-8.882725468710529	2.0554151698684207	5.687625505476316
O	-4.570530535710529	6.037722839868421	0.9189072154763152
O	-4.251572000810529	5.076808269868421	1.8728463544763152
O	-5.174726101710529	4.02399404786842	2.065224091476315
O	-6.322266458710528	3.863527586868421	1.3076817277763153
O	-5.981388578710528	4.216091158868421	0.05487623547631526
O	-5.103390270710529	5.295596189868421	-0.08718505452368475
O	-4.129357632510529	9.646103699868421	0.44939351947631523
O	-5.022659453710529	7.39825458986842	1.1058092314763153
O	-6.2745817687105285	7.582310339868421	1.2647568504763151
O	-6.782904618710528	8.91777894986842	1.3770973697763151
O	-5.828979818710529	9.400102999868421	2.338141332476315
O	-4.339123890710528	8.83818833986842	1.6845634094763153
O	-3.3954238377105286	8.92419739986842	2.7451853454763153
O	-7.975138148710529	9.369053479868422	1.4455751391763152
O	7.093488461289472	-8.21409470013158	12.263165995476314
O	9.86168496128947	-0.5167665201315796	7.806623755476315
O	12.939610161289473	3.2987403628684207	4.829109275476315
O	9.155291361289471	3.3782989208684207	4.0925751554763155
O	8.695539361289473	5.601392359868421	7.158457945476315
O	10.303252261289472	11.562284039868421	5.617060625476316
O	8.859937461289473	8.798739899868421	1.3083276203763152
O	5.740628711289472	9.780273669868421	2.999142525476315
O	5.280358771289472	7.541750229868421	-1.9718491645236849
O	3.095569161289472	5.4103872098684205	0.20989657547631513
O	-0.3812078487105288	4.597412841868421	-0.5776400345236847
O	-0.9180900587105287	3.2934692998684207	2.948516365476315
O	1.1861315012894718	4.058233325868421	6.181471575476316
O	0.5275726912894712	0.5874005798684205	7.612183335476315
O	0.9605848812894715	-0.8110424401315792	4.2997924354763155
O	4.834534941289472	-0.682589420131579	3.947148415476315
O	0.3420914212894717	-0.5773257201315789	-3.5921884345236847
O	-1.1137448387105287	0.5058599798684207	-6.916617564523684
O	1.1247877812894718	3.4161583818684207	-7.875924864523685
O	0.3277113612894711	6.92952302986842	-7.205899844523684
O	-12.449118448710529	5.51700172986842	-5.729690164523684
O	-9.10965204871053	5.662503599868421	-7.576507574523684
O	-7.131168008710528	2.8801077748684207	-5.915604874523685
O	-4.390746990710529	3.039311395868421	-8.661258004523685
O	-2.9106964287105286	5.591008479868421	-11.081745304523686
O	-11.30913993871053	-5.45612541013158	-2.979479864523684
O	-11.221609578710527	-7.65133880013158	0.19611105547631524
O	-3.8326826547105286	-4.340638160131579	-6.227257514523685
O	-4.474604743710529	-1.1857342201315793	-4.181162654523685
O	-2.5447918587105285	-2.030090910131579	-0.9940497945236848
O	-0.45978467871052864	-4.85476401013158	-2.7409186745236847
O	-1.0724664387105287	-7.5249490001315795	-0.1245088645236847
O	-4.642895464710529	-8.89722330013158	-0.1736024045236848
O	-5.596742338710529	-9.802297100131579	-3.7095906845236843
O	3.5063186212894717	-7.88698250013158	5.345111495476315
O	-0.21005289871052835	-8.75133590013158	5.353695745476315
O	-3.8647218887105286	-12.31962880013158	2.1740986924763153
O	-6.201176718710529	-9.946930200131579	3.8930076954763155
