69

O	-7.500061089183674	-4.461499683693878	1.7963339816326531
O	-3.9297085091836745	3.412689346306122	1.6151564716326532
O	-5.203880619183675	0.024826108306122197	2.2477944616326533
O	-6.346057159183674	-4.237101013693878	2.4919615716326535
O	-2.1423827450836743	2.2958299763061225	2.3036814816326534
O	-5.459431889183675	-3.269478943693878	2.1298335816326532
O	-2.537095815183674	0.8594535296061222	-0.3011207933673468
O	-5.8448306991836745	-2.391924693693878	1.169125271632653
O	-1.6073393041836743	3.4124986563061226	-0.5046681963673469
O	-6.710366519183674	-2.852630493693878	0.22816640663265314
O	-0.7582932591836744	2.0180270063061223	-1.9798765183673468
O	-7.684014269183674	-3.7240916136938784	0.6608379436326531
O	-5.289354479183674	-1.0845306036938778	0.9319991276326531
O	-4.185725419183674	-0.7766232136938778	0.21021845263265315
O	-3.5109071691836746	0.34673031730612225	0.566901168632653
O	-4.0866091491836745	1.1146600213061222	1.5266671016326532
O	-3.5366964591836743	2.3452981763061223	2.1389828316326533
O	-3.065725802183674	1.7724873453061223	-1.267733568367347
O	-1.8669234831836743	2.6470588463061224	-1.490493208367347
O	-3.255114289183674	-2.271027353693878	-0.47757965336734687
O	1.1586751208163255	-9.572320853693878	7.152510521632653
O	-0.04479753918367413	-5.976709493693878	7.387610251632653
O	-3.3765827291836743	-6.557291073693878	5.585252301632654
O	-5.452271689183674	-9.792066253693877	5.810915411632653
O	-6.523412149183674	-9.349204453693877	2.1542528216326535
O	-3.0715515591836744	-8.600583563693878	0.6523203826326531
O	-0.7930191191836744	-11.587517653693878	0.27908180663265314
O	1.9829905008163258	-12.702299353693878	-2.0566364883673467
O	5.052834540816326	-10.379755853693878	2.301423401632653
O	6.3615309308163255	-5.523232423693878	-0.7188450023673469
O	4.214706320816326	-4.093687613693878	2.0769795416326535
O	5.485175910816325	-1.360794403693878	4.397739331632653
O	8.944150060816325	4.211311166306122	-0.7489460173673469
O	5.667436840816325	5.744220086306122	-1.948600698367347
O	3.8693059408163255	6.320658846306122	1.382892711632653
O	4.415679920816325	8.176496676306122	4.637382021632654
O	4.894617820816325	6.353874086306122	7.952077771632653
O	1.6435788308163257	7.954956296306122	9.183248751632654
O	-1.2758861231836742	8.537359616306123	6.837671511632653
O	-4.869696809183674	9.391117836306123	7.758220271632653
O	-3.982622649183674	9.115167506306124	11.465470411632653
O	-2.7655263561836745	5.525070276306122	11.109772211632654
O	0.7279544008163255	3.9985363163061223	10.967996511632654
O	1.0623103508163259	2.5026557663061224	7.525339321632654
O	4.695934800816326	1.5589845113061223	7.799014391632653
O	-1.9451483471836744	9.932016806306123	-0.9236567893673469
O	-3.2301020491836745	6.493620986306122	-0.12141112836734687
O	-5.721893809183674	5.238471976306122	-2.7754501983673467
O	-4.785774039183675	8.496978496306122	-4.560734088367346
O	-2.6613741081836744	9.813508006306122	-7.433071908367347
O	6.679246440816325	-0.4218812236938778	-1.352036178367347
O	3.822445360816326	1.6844789363061223	-0.11148363036734686
O	1.5991948708163255	0.42255370330612224	2.707004291632653
O	0.14562078081632546	-2.689380733693878	1.105189601632653
O	2.605367820816326	-2.8040851736938777	-1.7875181383673469
O	0.03693483081632554	-2.976229733693878	-4.609285608367347
O	-1.7394364571836745	0.3668226973061222	-5.269872518367347
O	0.7910722108163255	3.178146136306122	-5.460785628367347
O	3.5145104308163257	0.5029771623061222	-5.921720328367346
O	1.6542656608163258	-1.0543841836938779	-8.921216338367346
O	1.1860214208163256	2.4197128963061223	-10.436181588367347
O	1.1299882508163255	-9.967212953693878	-7.234818718367347
O	-2.5766285161836744	-9.371596953693878	-6.536652948367347
O	-4.361328069183674	-6.056486353693878	-6.719719328367347
O	-1.7568621361836743	-3.997254303693878	-8.565659738367346
O	-3.3256616291836743	-0.6157998836938778	-9.025739068367347
O	-6.078862249183674	-0.13831799169387782	-6.438449768367347
O	-8.396480409183674	2.4203220063061224	-8.103763418367347
O	-4.606631829183675	5.228073686306122	-10.447110288367346
