81

O	-0.838841805772727	-10.764319623121212	2.731135046909091
O	-5.303226631772727	-10.353649433121213	-1.608677400090909
O	-1.485537149772727	-11.147504363121213	4.016790516909091
O	0.835239978227273	-10.855921593121213	2.712673666909091
O	-1.379433195972727	-11.914120453121212	1.5913491769090908
O	-1.386622067372727	-9.092521493121211	2.355770566909091
O	-0.689265503772727	-8.442261663121212	1.194055506909091
O	-0.2882936417727271	-9.148995283121213	0.0754834369090911
O	1.068214848227273	-9.320934983121212	-0.1998449880909089
O	1.8914864382272731	-8.431978213121212	0.4891174469090911
O	1.1868190482272731	-7.200768833121213	0.5991349269090911
O	-0.11474257177272706	-7.165433103121212	1.1270793369090912
O	3.1453485882272734	-8.278639243121212	-0.3323912680909089
O	2.680917148227273	-7.567743233121212	-1.523707437090909
O	1.2391974682272728	-7.652361293121212	-1.767222881090909
O	2.933997158227273	-6.126715833121212	-1.664053434090909
O	3.198259928227273	-6.191719813121212	-3.072701193090909
O	1.813026268227273	-5.408105574121213	-1.3396541650909088
O	4.373837038227273	-7.087810463121212	-3.1207518030909087
O	4.203085608227273	-8.553733103121212	-2.9788939330909088
O	5.438594658227273	-9.295076663121211	-2.551142073090909
O	5.117983058227273	-10.602379093121211	-1.8356882680909088
O	5.837586138227273	-11.695671803121211	-2.613914713090909
O	-1.097666405772727	-8.675438563121212	-4.085269873090909
O	-0.03130702177272693	-8.839309763121213	-3.287492323090909
O	0.18149525822727308	-10.167208683121213	-3.123716263090909
O	-0.830794040772727	-11.083972253121212	-2.538438833090909
O	-1.955341327772727	-11.113533113121212	-3.066345883090909
O	-0.635900054772727	-11.808269143121212	-1.397936486090909
O	0.8793919682272731	-7.7092986831212125	-3.110486363090909
O	1.4639600782272728	-7.6243365331212125	-4.192698323090909
O	-1.282222360572727	-7.8169126631212125	-5.2219890330909084
O	-0.508009671772727	-8.156347183121213	-6.124490263090909
O	-5.719243691772727	-11.555729173121211	-0.808478323090909
O	-4.976326031772727	-10.835205663121211	-3.168448253090909
O	-6.672024081772727	-9.339951413121213	-1.7106485990909088
O	-4.030216151772727	-9.489646303121212	-0.692054571090909
O	-4.350140791772727	-7.190713083121212	-1.8390558920909088
O	-3.536434241772727	-8.278807723121211	-1.398632745090909
O	-2.365601601772727	-7.577541383121212	-1.493537475090909
O	-2.105406768772727	-7.136035683121213	-2.793661853090909
O	-2.7831356117727273	-7.675323143121212	-5.231769823090909
O	-4.261575021772726	-7.078063863121212	-3.248303973090909
O	-3.052786281772727	-7.142051453121212	-3.829221493090909
O	-4.711983101772727	-8.926959383121211	0.344005986909091
O	-3.075925451772727	-10.375917163121212	-0.3713158830909089
O	-1.087631864772727	-8.309706773121212	3.4290311269090914
O	-2.716612491772727	-9.148129063121212	2.266736416909091
O	1.1149393582272729	4.643627966878788	-10.95178807309091
O	1.902785918227273	1.7657993668787872	-13.432788043090909
O	-4.569547131772727	2.9658956568787875	-12.52336554309091
O	-4.091477131772727	-0.8178233731212123	-11.79930894309091
O	-6.163737121772727	2.139535536878788	-7.709719103090909
O	-3.142178071772727	0.3473662668787876	-6.269355863090909
O	-3.218528751772727	-1.9988367731212122	-3.290864413090909
O	0.028196848227272975	-3.5661933231212126	-3.8968792530909093
O	1.621084278227273	-4.370062404121212	-7.127635523090909
O	4.993341128227273	-3.206150813121212	-5.996233843090908
O	4.103934118227273	-0.5089752631212123	-3.685828223090909
O	3.862042888227273	2.7981384068787873	-5.884811873090909
O	-1.923385743772727	2.4531747668787878	1.076925666909091
O	-5.035053041772727	1.6704187468787879	2.8932344969090913
O	-7.681147881772727	3.1628921968787873	0.569945596909091
O	-9.626653491772727	0.7592941868787877	-1.445386241090909
O	-9.285150021772727	-6.141899133121212	5.218344586909091
O	-6.028244821772727	-4.286090094121213	4.681023256909091
O	-8.087547141772728	-1.0440842931212124	4.369466406909091
O	-11.548087751772727	0.34912327687878797	3.4569091669090914
O	1.7692618182272728	-4.855748750121212	10.71399765690909
O	5.563025748227273	-5.314669661121212	10.14692145690909
O	-1.297334591272727	1.8531663968787875	7.132338516909091
O	-1.939134041772727	-1.1023867631212125	4.631927306909091
O	0.8839222982272732	-0.6039542531212128	2.111913946909091
O	1.688617858227273	2.9653395968787875	3.3578635069090916
O	5.394503038227273	2.6519165368787876	3.873718336909091
O	6.190380808227273	0.40982682687878746	6.896645706909092
O	4.377453838227273	1.930006726878788	9.97209855690909
O	9.728608948227272	3.938125706878787	-1.670707783090909
O	10.216236648227273	1.438332616878788	1.1156736969090912
O	10.321863748227273	1.6054345468787874	7.134850336909092
O	9.877007448227273	-2.0305404331212125	6.330874516909091
