75

O	1.6599611586199998	5.221984347346667	-7.359373891222222
O	-0.47700147138000015	-1.113197032653333	-6.577626781222222
O	1.3784928486199997	4.187374477346667	-6.4845988612222225
O	-1.5758782986800002	0.5876537273466669	-7.7936858412222225
O	1.02564380862	4.465882197346667	-5.160408121222222
O	-2.5013160123800002	6.785020257346668	-3.637293451222222
O	0.5360147286199997	5.712529517346667	-4.996530931222223
O	-2.3246500673800004	5.886807117346667	-6.933280881222222
O	0.5621519386199996	6.729121347346666	-5.951277671222222
O	1.2712122786199997	6.491284367346667	-7.0824002312222225
O	1.6666727086199997	2.750930035446667	-6.6277198312222225
O	-0.038940711380000215	5.9400588073466665	-3.6498373412222223
O	-1.7484403093800003	3.818408717346667	-6.513625791222222
O	2.1134318986199996	1.846277801346667	-5.817408631222222
O	1.7218460586199997	0.6309385073466669	-6.150580831222222
O	0.7587740986199996	0.7393779073466669	-7.110470471222222
O	-3.2360814713800004	2.538015333346667	-5.269638671222222
O	0.9936186486199996	2.020403047346667	-7.615884371222222
O	-0.43069714138000026	-0.11313473265333318	-7.360026231222222
O	-3.30437463138	5.733730417346667	-3.8431443912222223
O	-4.65939803138	6.160538427346667	-3.7886408512222225
O	-5.63248975138	5.336917497346667	-4.360137621222222
O	-5.21473256138	4.064565877346666	-4.633989601222222
O	-3.87469405138	3.699587767346667	-4.783631101222222
O	-2.8991883313800004	4.725722977346667	-4.711116851222222
O	-2.2006484573800003	4.898888757346667	-6.000587361222222
O	-2.11705473738	5.747138817346666	-8.316148681222222
O	-1.7207541083800002	7.236459597346666	-2.571550233222222
O	-0.4220833913800002	7.146829387346667	-3.366146841222222
O	1.5730215886199996	4.841354027346667	-8.679743661222222
O	-10.07406651138	5.707785297346667	0.7054749487777778
O	-12.38289207138	8.633379577346666	1.661369918777778
O	-12.60941807138	7.5723115573466675	5.340170628777778
O	-8.87604441138	6.724226647346667	5.610967028777778
O	-6.77942343138	8.558618437346666	8.192768448777779
O	8.74330172862	6.833894677346667	-3.388686291222222
O	8.08442506862	10.557061567346667	-2.796332976222222
O	4.38730364862	9.963529557346668	-1.9434404822222222
O	4.70999702862	6.848166447346667	0.21201243877777776
O	5.766503698619999	7.801746667346666	3.7044524287777776
O	5.29089897862	6.410836497346667	7.153605078777778
O	3.1538510386199996	8.520477387346666	9.510858148777778
O	8.61555232862	1.538499147346667	7.703920578777778
O	8.12034904862	-1.133899602653333	4.650717628777778
O	9.18072952862	-0.265764802653333	1.1040113987777778
O	8.70933852862	-10.186292512653333	0.4872547987777778
O	12.37851302862	-1.8073735826533333	-13.367624251222223
O	11.55502342862	-2.365456152653333	-7.403711791222222
O	2.4925003786199995	-5.257960032653333	-8.846065851222221
O	-1.0838298933800004	-3.9874215726533326	-8.466214121222222
O	7.30846229862	-5.416112502653334	1.9985767487777775
O	6.65374354862	-5.206993472653332	-1.6450641652222222
O	8.052587088620001	-2.295170082653333	-3.515462711222222
O	6.03815628862	0.6072867873466667	-1.9461704032222222
O	4.95594252862	-1.3567504626533329	1.0487547487777777
O	1.2776444586199998	-0.580908082653333	0.788126628777778
O	-0.5133674913800002	-2.5253524926533335	-1.9465409992222222
O	0.4759786386199998	-6.196823002653334	-1.8929807392222222
O	1.7957030486199996	-5.647983432653334	1.6571248487777779
O	-1.5278834352800001	-4.176090482653333	2.7682551687777774
O	-3.3369189213800006	-7.174799572653333	1.2599446187777779
O	-4.648374411380001	2.625725115746667	7.530895638777778
O	0.26949878861999976	3.462177883346667	7.096217538777777
O	-1.2146984233800002	5.263632077346667	4.100101748777778
O	-2.5875473413800005	3.5926492723466668	0.9863052087777779
O	-2.8707348713800003	0.06763904734666681	2.2569772887777777
O	-4.46666286138	-2.0005501626533326	-0.3902252512222222
O	-4.02227889138	-0.562392832653333	-3.5787076412222225
O	-6.8007231613800005	-1.6456585826533332	-5.928866181222222
O	-10.46144595138	-2.6537474026533334	-5.5828012412222225
O	-9.41050650138	-6.096411102653333	-6.799411681222222
O	-6.82156084138	-6.456452822653333	-4.008315181222223
O	-9.67875654138	-5.601432972653333	-1.579437905222222
O	-9.14122746138	-10.709820612653333	-3.114350144222222
O	-8.70764265138	-9.982025312653333	0.6115463487777779
