66

O	6.1526232606435745	0.8990309722750002	-1.4682877118250002
O	2.701646170643575	0.9327272662750001	-1.926306341825
O	6.847854750643576	1.7809207132750002	3.204004258175
O	1.233504261643575	0.7575420672750002	-1.709725511825
O	3.889773330643575	0.6828175452750002	0.12056720617500005
O	6.478914420643575	-0.35642319872499995	2.263147608175
O	6.919035510643575	0.00810428127500007	4.500765078175
O	6.129729110643575	0.23415139127500018	-0.28414479582499996
O	9.097120470643574	1.491083122875	1.850303018175
O	7.0862298706435745	2.000370851275	0.672377192275
O	4.975075410643575	1.614606014275	-1.692952061825
O	1.883082671643575	-0.1893930587249999	0.458019239175
O	3.845626720643575	1.0686090762750002	-1.191442621825
O	0.29949995064357493	0.5827703262750001	-1.395913841825
O	5.029504290643574	0.11582296127500014	0.559591341975
O	1.794447637643575	2.490539451275	-0.06524007582500002
O	7.212409050643576	-0.6848082587249997	-0.016286563824999933
O	5.257331930643575	-0.7411995487249998	1.732835518175
O	7.513688360643576	-0.20525152872499985	1.342204312175
O	7.853246500643575	1.222922255275	1.229352526175
O	6.458449090643574	0.6025945282750002	3.283448358175
O	8.013783580643574	0.34898808127500014	5.312029328175
O	8.359978760643575	1.778642252275	5.049372178175
O	7.731605200643575	-0.02743313872499975	6.733237718175
O	9.279047740643575	-0.4470676887249998	4.951848868175
O	9.981515200643575	2.4432817312750004	1.258055804175
O	-1.203586089356425	3.137840781275	10.977522678175
O	0.2898926406435749	0.43267029127500023	8.725635708175
O	3.033704870643575	2.6965826012750003	7.479321878175
O	4.835411850643575	5.493266831275	9.441536108174999
O	5.3250405906435745	7.520059641275	6.204150278175001
O	1.784023624643575	7.171136241275	4.8658072981750005
O	-0.711892479356425	9.315706841275	6.767044808175
O	-3.9609047693564254	11.114680541275002	6.037622988175
O	-5.932561529356425	6.092539121275	8.213646778175
O	-4.689508859356424	1.5595023902750003	3.977707878175
O	-5.270644689356425	-2.1840014787249995	4.176423868175
O	-6.595355509356425	-3.7419746687249997	-5.143515691825
O	-4.055575069356426	-5.909117048725	-3.232864281825
O	-3.674361229356425	-10.140404358724998	1.8568659381750001
O	-0.2338125593564251	-11.646122558724999	1.3074951161750001
O	2.170385650643575	-10.145488658724998	-1.226820841825
O	5.881845520643575	-10.871654058725	-1.552169151825
O	5.706580100643574	-13.159876158725	1.523956689175
O	4.344186500643575	-10.387500558725	3.7583790381749997
O	0.8919171326435749	-9.555107858725	5.080629038175
O	-0.038823249356425116	-6.245114218725	3.4322100281749996
O	-3.6803777293564255	-6.389503458725	4.770630328175001
O	1.353789817900575	-6.252379958725	-7.998739861825
O	2.537280960643575	-3.8404602787249997	-5.369136231824999
O	4.3094244906435755	-0.9004418387249997	-7.155805041824999
O	3.1607563706435746	-2.4485358287249994	-10.287756521825001
O	0.5089676176435749	-2.060267578725	-13.000774421825001
O	-4.603503559356424	-1.4386983387249999	-1.3893043518250001
O	-1.834481859356425	-1.8177636187249997	1.227118334175
O	-0.7626202093564252	1.773875660275	1.856211608175
O	-3.9144192593564253	3.2713733912750005	0.07309638217500003
O	-1.9515523293564252	5.572353251275	-2.270478471825
O	-0.22470076935642513	3.7042079612750003	-5.152584541825
O	-2.680959609356425	1.2642279522750002	-6.795518121824999
O	-0.237194059356425	12.151062341275	-0.04766394782499994
O	1.710983164643575	9.961880341275	-2.4732179018249996
O	-1.149471259356425	9.104363111275001	-4.854376041825
O	0.3769097006435749	7.089325771275	-7.606922221824999
O	3.630481160643575	5.643866641275	-6.478446301825
O	5.554724910643575	5.063890821275	-9.716918821825
