77

O	-0.15564144741666602	4.337889518277778	-0.7178253961944443
O	3.073589589583334	5.6732921682777775	-4.152947536194445
O	1.627756179583334	5.7318198582777775	-4.316256296194444
O	-0.615787900416666	5.133835068277778	0.41221023380555577
O	1.027075169583334	6.548358318277778	-3.245471529194444
O	-0.6700125854166661	4.422359108277778	1.6881277038055558
O	-1.531684540416666	4.741290958277778	-8.378869656194444
O	-0.23508146801666602	3.0627782112777777	1.649131673805556
O	-2.523322450416666	2.3364234242777777	-8.656197136194443
O	0.527037950583334	2.901770259277778	0.12533900380555574
O	1.3600061995833341	3.828511068277778	-9.835407436194444
O	0.27353828658333396	1.6737269982777778	-0.6208844661944442
O	0.7282429585833339	7.534643118277778	-5.923457736194444
O	1.890836939583334	3.4003530102777777	0.30170610380555596
O	1.390235769583334	6.336509438277778	-5.9459427661944435
O	2.406642059583334	6.238978278277777	-6.918123866194444
O	-0.635122069416666	5.018236578277778	2.810949443805556
O	2.346231609583334	6.942495128277777	-8.113322016194445
O	-1.039721597416666	3.833838528277778	-1.7478734661944442
O	-1.620405500416666	3.4858930102777776	-6.676357116194444
O	-1.3588919504166659	4.604121708277778	-2.826649569194444
O	-1.323792320416666	4.1567282082777774	-4.123571091194444
O	-0.589327933416666	5.092546848277777	-7.511976706194444
O	-0.9878160704166661	2.825946838877778	-4.442064286194444
O	-1.2248116444166661	1.9883648582777778	-3.3492602911944442
O	-1.199568518416666	2.4962984132777777	-2.055649556194444
O	2.203032489583334	4.069649628277778	-10.885820496194444
O	2.3168158795833342	3.091530252277778	-11.866285266194444
O	1.485040879583334	1.9825221352777778	-11.763263216194444
O	0.26643687358333396	2.2184718522777778	-11.112819096194444
O	0.326244054583334	2.4743827942777776	-5.146257076194444
O	0.757904739583334	3.770573745277778	-5.770240666194444
O	-2.173719930416666	3.6124664222777776	-7.878287896194444
O	0.4438898775833339	8.044240008277777	-7.148233056194444
O	-0.548049831416666	4.313656038277777	-6.3955816861944434
O	1.217168479583334	7.743715758277778	-8.262928536194444
O	0.27989850358333396	2.932139915277778	-9.914504116194443
O	-0.14941246841666603	2.419149366277778	-8.608911536194444
O	-1.256241690416666	1.4305880182777777	-8.501194736194444
O	0.9351143495833341	4.262797058277778	-4.388445436194444
O	3.436246729583334	7.364335528277778	-8.829103726194443
O	-11.889224570416665	-1.4618856017222224	-7.452021306194444
O	-11.390641570416665	-6.624604861722222	-7.177540916194444
O	-9.319616900416666	-9.705495561722222	-8.027421786194445
O	7.607007539583334	-9.725381061722222	-6.888091146194444
O	9.855177329583334	-3.6293616617222226	-2.998177704194444
O	9.196696789583333	-0.21258469172222227	-1.5931403161944442
O	6.689856239583334	0.5637541882777777	-4.342470116194444
O	6.683405989583334	-0.2939737817222223	-7.984960336194444
O	3.043465679583334	-1.043420901722222	-8.191999656194444
O	2.342660719583334	-2.5066995417222224	-4.795521256194444
O	3.184888329583334	-6.1748165517222215	-4.988008376194444
O	1.982877659583334	-9.266403561722221	-3.318429581194444
O	6.566603319583334	-7.952203661722221	0.0056504338055560765
O	5.034332669583334	-2.871387161722222	3.4413602438055557
O	7.083955999583334	-0.7363128817222222	5.826949273805555
O	-0.08616195341666602	2.5711501522777778	11.190520923805556
O	9.912075729583334	11.266022278277779	3.270589483805556
O	10.933008329583334	8.004618978277778	4.9442895438055565
O	7.913536719583334	5.7550433982777776	4.309740033805556
O	-1.070366530416666	8.658270398277777	4.393487403805556
O	-4.161028050416666	8.353135608277778	2.1506444538055556
O	-6.064806070416666	9.732609078277777	5.123849863805557
O	1.839226709583334	1.0978118982777778	7.0126807238055555
O	4.040562049583334	2.249956059277778	4.118246413805556
O	2.643972659583334	0.17853188827777755	1.289007963805556
O	0.6984877275833339	-2.230393611722222	3.517446973805556
O	-2.727161170416666	-1.8829932917222219	1.9001981338055556
O	-4.318759250416666	1.6568487982777778	2.4316558038055556
O	-4.322825690416666	2.2697602492777778	6.235127003805555
O	-4.143495010416666	-5.751151231722222	-4.035630293194444
O	-5.456907490416666	-2.3397907317222226	-3.253667733194444
O	-6.725056700416666	-2.7921046317222227	0.25498402380555607
O	-8.269838970416666	0.4715914282777778	1.2669638538055557
O	-6.813072860416666	3.225477444277778	-0.9017337061944439
O	-9.505529030416666	5.937147298277778	-0.857462516194444
O	-10.987306370416666	5.2092358382777775	4.122884193805556
