47

O	46.17161227296429	9.951388436453994	2.085544268571611
O	47.38948356573102	7.836715642328864	0.3507762710501252
O	49.087767971114005	11.99889910491438	2.031272113931582
O	47.841905593233655	15.505220675717831	0.4395617260283977
O	46.31828753651391	10.944814251764953	3.2034574236595583
O	49.9439293423425	9.459738874552588	1.1504633725437987
O	49.322754133996256	12.02013252014516	-2.2299565857951453
O	47.23451705293505	10.422978175996901	4.084192259345508
O	50.887167313941035	12.30928075207737	0.8683882915757692
O	51.30470207215939	11.07010695665446	-1.7606296516311613
O	47.69126353298809	9.031628000159316	3.9545831610996056
O	45.97737008757427	12.3669398779756	2.9641771505045726
O	45.883765874787365	7.361865961347461	-0.2607246142790318
O	48.04729606782817	8.638603516580924	2.7023825277024134
O	47.655242953132735	13.288892498325934	3.653486695501995
O	47.273386142112	9.319388833011944	1.8430667991733518
O	45.39173020742011	15.637625066267958	4.542261092354084
O	48.72655190524015	7.433123015594141	2.120470355538151
O	47.13472181524935	15.841919572560151	3.6173736629307043
O	46.404856398511605	13.546423501455138	3.714544914505568
O	48.90608929388926	9.42983188240974	-0.8278899029943627
O	48.74276788897849	7.707841857101404	0.5964079712860411
O	43.557498363191286	14.727937914584476	0.6837764207538779
O	46.69365760740867	8.268165687742215	-0.7135458980500902
O	45.14228315116099	15.77861248300205	1.4814891671526471
O	48.93133460985642	9.265339432402513	0.3921320805541164
O	51.258228240619154	9.778223569828182	0.8115124189978005
O	52.11033799442184	9.262513018838519	1.8587846817406124
O	50.401264070778936	10.610642055369343	2.856482803879903
O	51.306524632423525	9.518031398211575	3.06535505469566
O	50.30879428827298	11.805218900053298	2.0816770018216992
O	50.04251396604584	12.370221950403137	-0.24734160842351294
O	49.358762829796696	13.612640917778876	-0.25627452377075954
O	50.40929371911689	12.055280985399307	-1.5662669562560225
O	46.239528507364454	8.794153478692202	-1.9688310506262088
O	46.25946310340295	14.82305346846815	4.195143360707247
O	45.18597653739222	13.306930276361696	0.7900930409098681
O	46.107336067391365	12.67038795324993	1.5316345042730735
O	46.89003496423974	11.828254455174331	0.7359481662259268
O	46.88068437945671	11.615949963273058	-0.594752374794151
O	45.75685060838394	11.889966466202708	-1.207247637207736
O	45.11480782247019	12.95000931863684	-0.5555742008650633
O	44.63724265268758	14.509334380353518	1.3643324108631258
O	44.86511278815421	10.229123639157315	1.5424792190575545
O	44.19107934161631	9.85523522925338	0.35328247344654695
O	49.06058940319857	14.432531489197402	1.0398246415612462
O	47.23603537148428	15.296121617444356	-0.995921746890426
