53

O	45.89284358826715	9.741999500944958	1.0166444496697462
O	47.40499716061519	12.468880461195562	-2.1849398811421974
O	50.30546905065488	8.403533362905769	3.7787756952221185
O	46.20769852678822	11.008701703309033	1.6486831605482575
O	49.94446238281023	10.952600946956048	-0.4610547897999888
O	46.907765380446044	14.9000771188847	4.211831564299162
O	46.69013270681141	11.856404447158813	0.6861211135255765
O	47.27053260166931	11.33576472305521	-0.35113237457038515
O	45.54092730174376	11.913990528465094	2.513062589178591
O	46.062416555551906	11.083509451861314	-3.306649748496609
O	47.00927425731196	10.111526214331054	-1.020171056378759
O	46.43526842224878	12.281745187098254	4.244223155651586
O	46.3746073819186	9.249828042271194	-0.20074502174559417
O	44.95115048283587	15.359321799928402	3.7984741049208433
O	47.996216328153494	10.00905662317492	-2.032319521574834
O	45.990251722248836	13.077386363303097	3.3349968001857175
O	49.361325138895324	13.115531530632165	-0.6433140014638603
O	48.49347015541663	11.458880801112327	-2.224857607241452
O	44.875140206129785	15.41575656738263	0.8051719187127926
O	46.39944904011536	12.266441190947974	-3.124969610131032
O	46.69612877341064	14.718701244307479	-0.0017149670569303055
O	49.231924261412644	11.963823628141204	-1.0224794408965217
O	48.46973878153126	11.160598858044423	3.3597123980085177
O	51.22435234081052	10.919926327671067	0.13948312861939627
O	49.111069133851714	12.077796984242823	2.0908024076542215
O	51.532253530094415	9.491090503323205	0.3341816814506604
O	51.01775990598995	7.164296572135294	3.2484152904376224
O	51.81801912505867	8.841054676464838	1.587785641622811
O	45.66717428443549	8.802001622978102	1.9230366694526007
O	45.45603608404347	7.549958816586138	1.3536853441137309
O	45.69625631652033	7.070516855749647	0.06082740603641135
O	46.07992523600081	8.0759296578886	-0.8043439377808843
O	51.302645334006215	7.542723387183993	1.9877155854019195
O	45.65147570532245	13.463697380934093	-3.5393535217531973
O	45.7813394595873	14.2525166454611	4.065827495881059
O	44.736761656198574	13.173999881887047	0.6626381820613787
O	44.346371160214055	12.298318946952751	1.6923328772907986
O	43.665495744319216	11.163901374601208	1.1623987799970639
O	43.48602959097883	10.72638066505802	-0.17642394757692337
O	44.00301115391116	11.557543179810326	-1.0895097487569423
O	44.338549570924684	12.858422485217583	-0.6319465246527294
O	45.59846180203731	14.36584547177752	0.8321813386139478
O	48.89815968766348	8.588734596677881	3.381034758773892
O	48.26529566026667	7.337452849106088	3.133659580038926
O	48.29272456162804	6.558853974830606	1.9864410540702888
O	48.73586044671678	7.231197861886913	0.8426157513743187
O	48.783656492531776	8.578595849430386	1.0467040289888443
O	48.88806155878974	9.398317401171688	2.228118592407264
O	49.20224096657023	10.745648859321147	2.41142656118108
O	48.00050137488068	5.194212581143248	1.9256913257282147
O	48.760591301475216	4.423077985891222	1.0858665703104329
O	49.37293893810812	5.045248234800659	0.005081315906566353
O	49.073190763004426	6.362308028242127	-0.20183946980022682
