28

O	45.93104464604951	11.235086279003038	-1.068877613072317
O	47.34661453185675	13.395434748668045	1.266388370062085
O	50.692312704756986	10.17712266759333	0.2710084943644473
O	46.798648683191466	14.168039107145937	2.376660850670673
O	48.35185102160081	11.594835152748445	0.018628088181415592
O	49.31073121453375	8.519830229081768	-0.3177943783146784
O	48.16109985349942	12.092633025038815	5.611559997863548
O	47.379585604199626	10.377332009740389	5.217899534497706
O	46.77369351555056	10.118709501751692	-1.0542788216026917
O	48.59238723657412	11.101702143645198	3.087433398441976
O	49.14121513268354	9.592423930610284	5.308299922813294
O	45.94518477636389	11.696113857952737	0.26742874203670564
O	46.60117439383158	10.238324779710865	4.945553046149302
O	47.2203472741853	12.178063219422768	0.588898659641683
O	46.06099610652226	12.872068135486284	3.4924634617036556
O	48.07723088923667	10.415966590361087	-0.5860080816211717
O	46.25769067549068	15.315262945753435	2.910406021889301
O	48.927386550995564	9.457315360951355	-1.3765904304749235
O	48.48294102660089	14.203566166418938	3.4719007615262427
O	50.066822945138846	9.192520768316541	0.7086960482816318
O	50.939305981827395	8.168115351479212	1.4074004684381238
O	50.0667216369557	6.920609239585516	1.6829555783625505
O	48.801618335768374	7.58414418068617	2.115341260462004
O	46.86325820898501	9.415708875668816	2.417299974546859
O	47.60617100101771	7.3658977821945575	1.5270089820507264
O	48.990404775773236	8.81055951480041	2.7542811674488927
O	48.1090146853898	9.844255534367576	2.731843482717438
O	46.73376047002793	8.413121130513765	1.524617755056922
