68

O	-7.620278320342	1.5044910638300002	3.3371116005799997
O	-6.981211180341999	2.4229200098300003	2.44529090058
O	-5.747226400341999	1.69962311383	1.9954624705799997
O	-5.7052307403419995	0.3070070198300001	1.89604631058
O	-6.160053210341999	-0.2890806801699999	3.1777647505799997
O	-6.532529230342	0.9028339248300001	4.06282378058
O	-4.1998737303419995	2.02120315783	1.3138548505799998
O	-3.9780187803419995	0.5676526528300001	0.5295378715799999
O	-5.063054310341999	-0.1731872701699999	0.7990388275799999
O	-5.218545130341999	-1.5001931301699998	0.1664086216799999
O	-5.2838177003419995	-2.5399445501699995	0.8515455965799998
O	-6.064139510342	-1.45351723017	-0.94855862942
O	-3.386835880342	0.5851033528300001	-0.7922755004200001
O	-2.1285428678219995	1.1527519618300002	-0.8058135944200001
O	-1.2250425933419995	0.8262595218300001	-1.8736142694200004
O	-0.0569497603419995	1.3174505282300002	-1.9951943994200003
O	-1.1955966033419996	-0.51962227017	-2.2643368294200004
O	-1.9703606743419995	2.08390674383	-0.015526097420000107
O	0.3783632896580005	-5.56420690017	10.46637526058
O	-1.2384496103419995	-6.10760684017	7.0893226805800005
O	-3.9454233603419997	-3.4407308501700005	7.59254567058
O	-5.648528550342	-2.5524492601699995	10.91215826058
O	-5.821070140342	1.13696698583	9.91013078058
O	-2.2573192883419995	1.5557702908300002	8.587498670579999
O	0.39061807965800055	1.82137128483	11.310321260579999
O	3.7657683696580007	3.50591993983	11.74707166058
O	5.376979039658001	-1.81815626017	10.05013013058
O	7.871340599658	0.6220793828300001	8.520221590579999
O	6.7545102896580005	-0.08135795016999992	4.636310910580001
O	3.8278707696580003	-2.4088419101699996	3.92376883058
O	4.1621077196580005	-5.39787792017	1.5934610405799998
O	8.087102699658	-2.31608852017	-5.07322393942
O	5.060096879658	-0.57559173017	-6.57184528942
O	2.444090289658001	-3.3681806401700003	-6.37219680942
O	1.9801197796580006	-6.894543840170001	-7.62782382942
O	1.8492165896580004	-9.86749215017	-5.24629124942
O	-1.7423897413419995	-10.46555685017	-6.38695122942
O	-4.068723120342	-7.56963936017	-7.18050908942
O	-7.838509710342	-7.71806537017	-7.64074737942
O	-7.802062190341999	-11.45659915017	-6.77080864942
O	-6.160592980342	-10.83324565017	-3.37899668942
O	-2.6032695753419994	-11.29049915017	-2.1068470194200004
O	-1.3406248363419997	-7.799842330170001	-1.3103676494200003
O	2.2078001096580007	-8.887477850169999	-0.5664179144200001
O	-3.0119188953419993	-0.24361689017	-9.899605239420001
O	-3.9633669403419995	-0.08097497017	-6.25935523942
O	-5.600177940341999	3.28563513983	-5.43016091942
O	-4.652431970342	4.19887451983	-9.006361869420001
O	-2.0713908162419994	6.16381655983	-10.98252653942
O	6.619365529658001	-0.3989245801699999	-0.49083254342000016
O	3.337996049658001	-1.1847069201699998	-2.1081807894200004
O	0.6184634796580006	-3.04732817017	-0.1724491144200001
O	0.020527869658000242	-0.6321278501700001	2.6734067205799996
O	3.1063868496580005	1.48052257333	2.0579207405799997
O	1.3804376296580005	4.86356195983	1.87817160058
O	-0.5379753703419996	5.44727572983	-1.4395848294200002
O	1.6528645196580003	4.51992761983	-4.43137087942
O	4.629812109658	4.62935118983	-2.03000102942
O	3.7245562496580007	8.20755572983	-0.93928842942
O	3.2579243196580006	9.24775069983	-4.58463287942
O	3.842893839658	8.20577620983	8.15886974058
O	0.030829099658000292	8.39147746983	7.96886155058
O	-2.0252605933419994	8.47346552983	4.81407762058
O	0.7072801296580002	9.25258425983	2.27202997058
O	-1.0777592203419994	9.552836159830001	-1.0295487894200002
O	-4.424290630342	7.7110172198299995	-0.7861374744200001
O	-6.582344060342	9.42616794983	-3.4183377794200003
O	-2.6714426393419997	10.30202545983	-6.92125360942
