69

O	2.9853515646666673	-3.674513568476191	3.814547247142857
O	3.295441024666667	-3.5986685284761912	2.100091790142857
O	3.4248286646666672	-2.255530378476191	1.914218519142857
O	2.915154244666667	-1.489635748476191	2.919485717142857
O	3.152842804666667	-2.0610092784761913	4.175573727142857
O	3.642180744666667	-4.7440321084761905	1.268122512142857
O	4.703336854666667	-5.333179618476191	1.5413991901428568
O	3.274524654666667	-4.812734228476191	-0.04637145285714306
O	3.0605954346666673	-1.486157178476191	5.469686657142857
O	3.8016047346666673	-0.3031541494761911	5.483075047142857
O	3.525492284666667	0.4856553935238088	6.554838517142857
O	3.326272504666667	-0.13927593547619121	7.781212567142857
O	3.1531586846666673	-1.532091468476191	7.765931877142857
O	2.466061534666667	-1.9642901684761913	6.597600287142857
O	3.9456241846666673	-1.6858156284761914	0.7418835961428568
O	3.199298464666667	-2.002190348476191	-0.40251341285714304
O	4.0053338746666665	-2.1556023884761912	-1.6269663728571433
O	5.239414454666667	-2.1503680384761914	-1.462511452857143
O	3.5373981846666673	-3.054938458476191	-2.560262742857143
O	3.078353214666667	1.7730597615238088	6.183798927142857
O	2.143266314666667	2.336915731523809	7.101744117142857
O	0.910696204666667	2.913488711523809	6.520175997142857
O	0.04038685266666703	3.555370231523809	7.563778517142857
O	0.892489869666667	4.675200541523809	8.149635477142857
O	2.002395144666667	3.9267286815238087	8.886747697142857
O	2.9106381146666673	3.3934828115238087	7.820729407142857
O	2.203063404666667	0.25909005252380884	2.954892117142857
O	4.831847074666667	13.100620991523808	4.876094997142857
O	0.06557270866666698	15.110171091523808	4.065491797142856
O	-4.579899455333333	-6.568548178476191	6.313022297142857
O	-2.422096385333333	-4.000258128476191	8.148814947142856
O	-3.245401545333333	-2.3333879484761915	11.499132737142856
O	-1.5726662153333328	0.8759886345238088	10.331622957142857
O	-3.142090315333333	1.1444431495238088	6.848522347142857
O	-6.773153255333333	2.251614481523809	6.7755969971428565
O	-9.034276605333332	4.104931871523809	4.371044487142857
O	-10.218713035333334	-1.379152768476191	2.930147957142857
O	-10.366008035333333	0.6453443015238088	-0.289449442857143
O	-7.142773145333333	-1.128187438476191	-2.064036892857143
O	-5.117716395333333	-3.6668678784761917	-0.047928232857143094
O	-4.478521505333333	-7.1714764684761905	-1.445568172857143
O	-1.9308429953333328	-5.845257868476191	-9.276268062857143
O	1.587669384666667	-4.708821108476191	-8.401150392857144
O	2.654592734666667	-7.45828092847619	-5.960046182857143
O	0.9681620966666671	-13.412386708476191	-3.6870133028571432
O	4.9957226246666675	-13.946608508476192	3.706796837142857
O	0.775748959666667	-10.534452108476192	0.9303303971428569
O	7.722098894666667	-4.515098398476191	-1.518367592857143
O	9.117489164666667	-1.1350497384761913	-0.5291268328571432
O	11.094286264666668	-1.240944238476191	-3.791668102857143
O	-3.611975765333333	-2.821678028476191	-5.410279672857143
O	-0.40385944933333295	-4.165853298476191	-4.0382570228571435
O	-0.393371426333333	-5.605621078476191	-0.5285764828571431
O	-1.110633405333333	-2.4613865884761914	1.5883339441428568
O	-2.464003995333333	-0.5166092584761912	-1.4601424228571434
O	-0.330152303333333	2.596610111523809	-0.782956512857143
O	3.362497574666667	2.167353151523809	-1.740996152857143
O	3.672639334666667	0.5689428265238088	-5.170149452857143
O	-0.00756208833333305	1.491634081523809	-5.767448592857143
O	0.680082866666667	5.167825901523809	-4.947550412857143
O	3.699053614666667	5.166262791523809	-7.284206392857143
O	-5.645582565333333	7.638920301523809	1.0688075571428568
O	-2.8396782753333327	7.6889789615238096	3.6137420971428567
O	0.814396995666667	6.682595631523809	3.0488200571428568
O	0.805763470666667	6.930942941523809	-0.7983803028571432
O	4.366844724666667	6.275307611523809	-1.811251122857143
O	6.144318334666667	4.4241991115238095	0.9937969491428569
O	9.816736424666667	5.301276361523809	0.4626396781428569
O	9.655454914666667	5.281962361523809	-4.821941282857143
