32

O	45.637403261945195	12.706511262556582	0.0940993307261273
O	45.94262308257372	11.620094120339765	2.6055072409981115
O	45.81011233834238	11.378966572683211	0.3552128045046228
O	45.393737463635816	13.421420527147639	1.2665891274634946
O	46.01964465499748	12.952680424514599	2.4164481253240924
O	45.906642317324724	10.739314899914831	1.5293342778642423
O	46.01491390131046	10.606976035890847	-0.9058794315880387
O	46.145272913077385	14.087188173909002	3.208681750774332
O	47.482577213199754	10.359570033526856	-0.5365177892358126
O	47.50385158633031	9.44254304594946	0.4377259356518195
O	48.19806931551874	11.29009630082612	-1.27615060900402
O	46.31591295217164	9.31801453419012	1.3052243544645714
O	48.290549231849376	8.27657949569269	0.3963967689254755
O	49.14907352021965	8.1722390101097	-0.4909198910883976
O	48.15335767096217	7.470562843120554	1.612588163486178
O	47.70094159253462	8.376698697572188	2.820128390323875
O	47.787618749012054	12.485591939074476	-1.4406035897629916
O	49.46998233335684	11.03363323444805	-1.7959283616141288
O	50.17091138550652	11.876619241970007	-2.733738399465901
O	46.143287742927015	14.690550617291445	4.487998932912462
O	48.742131048519234	9.478202336128637	2.8492871982242294
O	50.40040044923964	10.763249509518802	1.2308120580020177
O	48.70315112661696	10.898657270693672	2.8382835917080396
O	49.91022837605909	8.820027999876398	2.3948017146388807
O	50.842533467509924	9.632035455233556	1.827586138666284
O	49.425141176017746	11.571201583074826	1.8560336360847387
O	49.25121124797739	12.893064672985368	1.3709458076759695
O	50.088752778982	13.27599965156778	0.46526898336441036
O	48.42970066494253	13.938618250355084	1.1328287089806253
O	47.110759975935025	12.677453026436242	5.033876600045745
O	48.49172017305297	14.511400628171836	4.01847822564628
O	46.345815529317676	15.401605434299952	5.191955664760085
