22

O	48.47785307336349	14.588026278818386	-0.18252392053569988
O	47.580383307843945	14.768540340380913	1.629922755514706
O	43.62039605553025	13.377306258702694	-1.383652613232699
O	46.97610654402412	13.387486995947976	1.4725229003683022
O	46.06333544254026	13.119332027827175	2.422116902529112
O	45.82602495700451	15.898235388571493	-0.8237774411934913
O	44.74767515192314	13.21961877001192	2.101215212434014
O	45.99321891277263	14.313751481462875	-2.5363816077525536
O	44.38956063394205	13.385898801490264	0.8195581538104895
O	43.6929121589463	13.675496679694756	-3.633441438269193
O	45.26247418652574	12.653542816810326	-0.009030823624616602
O	44.17916931341152	11.516096401092653	-2.9177835226567623
O	46.6360167294187	12.64046025109597	0.3435786649734114
O	43.95518052093788	14.823595718911637	0.47992414339085077
O	43.9738162786872	14.668773755916114	-1.0624763702154585
O	45.34941766613306	14.920291445352847	-1.4831573686218267
O	43.83178840150291	12.851225828587246	-2.6783423019731885
O	46.735873464741026	15.119485346289855	-3.414345905670494
O	44.095557701686225	11.132079126186717	-4.291732547495515
O	44.01916000334375	9.636425635396435	-4.279344144960874
O	45.375110498695605	11.543972582657805	-4.943103405264292
O	42.8549423394867	11.660046535798752	-4.9458583299002505
