71

O	1.1091269258411764	2.7589062253529404	-1.1659201659803924
O	1.3879273558411767	2.8027412273529406	0.5158190540196075
O	-4.121012994158823	6.634678684352941	1.6561834340196075
O	0.6227396258411764	3.3794869743529405	1.6154507340196076
O	-2.070875824158824	7.182321314352941	1.0872638160196075
O	1.3784604258411763	4.226946184352941	2.4844643540196074
O	0.9025478458411764	4.871823654352941	3.6393229840196075
O	-0.42754601315882357	4.8462567443529405	3.8732380040196075
O	-1.2450713891588236	5.982246134352941	3.7920327140196077
O	-2.5056773541588235	5.976453634352941	3.2651100940196076
O	-3.0371672941588237	4.705495674352941	3.2636311040196073
O	-2.3419457141588236	3.5972978543529406	3.7729887440196075
O	-0.9578035906588236	3.623695434352941	3.6165480640196077
O	-0.33684315215882354	2.8957430353529405	2.5459171840196078
O	-2.9564317741588235	6.833668424352941	2.1313623540196076
O	0.6019276958411763	4.121095874352941	-1.2013678659803924
O	0.46089685584117634	1.9881197498529406	-2.4033938859803925
O	2.4518266458411766	2.1697303303529405	-1.9633077159803927
O	1.8248396858411764	1.5601271413529405	0.8956763930196076
O	2.6411865858411767	3.4227615043529407	0.5394762340196075
O	10.513639005841176	-2.7599872656470588	13.576772924019608
O	-9.913728034158824	-2.142879495647059	6.040098494019608
O	-8.908313264158824	0.41300817435294057	3.4309449840196073
O	-6.684620624158823	2.3274098123529408	5.831529354019607
O	-7.147039454158823	2.956158094352941	9.561205974019607
O	-3.3555224241588233	2.8553609913529407	10.069274464019607
O	-2.6567760441588235	-0.3881492356470593	8.118150294019607
O	-3.653962074158824	-3.6775918956470592	9.667082284019607
O	-2.3996326441588236	-7.2617917356470585	9.567054334019609
O	-6.530581194158823	-7.40905564564706	5.486706274019608
O	-3.7460413141588234	-9.74129598564706	4.315281244019608
O	-2.6922715741588235	-7.525344605647058	1.0307189640196075
O	-4.437123004158823	-4.196839625647059	0.46455876601960755
O	-6.163069414158823	-3.339966895647059	-2.8284175159803926
O	-0.5577753101588235	-5.533794915647059	-8.667065925980392
O	1.7011360958411765	-2.4880691256470593	-8.189962165980393
O	-0.8341807090588236	0.34911675435294054	-8.238037275980393
O	-7.187338504158824	1.6034012573529406	-9.687626365980393
O	-7.144340854158823	5.41867928435294	-9.67988868598039
O	-4.164619534158824	7.383727694352941	-8.407243655980391
O	-4.0203049441588234	11.088126794352942	-7.595116445980392
O	-7.751933644158823	11.410478144352941	-8.378005675980393
O	-8.801755814158824	8.749198544352941	-5.8753257059803925
O	-9.779523764158824	5.08147094435294	-6.113704615980392
O	-6.992552944158823	3.1238264043529407	-4.400105715980392
O	-8.336457664158823	-0.2933309856470594	-5.439455125980392
O	3.5737129758411763	6.043795084352941	-8.136018175980393
O	2.2519821258411765	5.8272019143529405	-4.6375471859803925
O	5.154822975841177	6.675239374352941	-2.1501595759803926
O	7.346890175841177	6.531860534352941	-5.214386535980393
O	9.857549105841176	4.32966168435294	-7.011185605980392
O	-0.7799394261588235	-5.880824625647059	-3.4974767159803926
O	-0.7157617411588235	-2.164991665647059	-4.075022455980393
O	-3.279906144158824	0.032106354352940514	-2.2697883159803927
O	-2.2689694641588236	-0.6074291656470592	1.4134239940196076
O	-0.07307610215882354	-3.702084725647059	0.6034214360196075
O	3.0823702658411767	-2.3557393456470592	2.3813525940196074
O	5.168764585841177	0.2360722643529407	0.4583477250196075
O	5.395977675841177	-0.6932748556470594	-3.1699316559803923
O	4.4574287558411765	-4.274508155647059	-2.1412282759803927
O	7.247983125841176	-4.394488585647059	0.49853296401960756
O	9.728438205841176	-3.070159045647059	-2.0924394259803925
O	8.300855365841176	-6.567366355647058	9.141744464019606
O	3.3552916258411765	-7.04604486564706	8.271402454019608
O	3.7339780958411763	-3.451568385647059	9.475709454019608
O	5.225487665841177	-0.6449612656470596	7.468114634019607
O	6.903582365841177	-2.651503825647059	4.675627574019607
O	8.742761015841175	-0.14934048564705926	2.5692149040196077
O	7.3016844058411765	3.2561394743529406	3.2379179840196075
O	9.976286105841176	5.77144058435294	2.2785591840196076
O	11.956495905841177	2.9489026043529405	-1.7376089159803922
