71

O	7.343663122225	3.888320179310001	-6.156783235599999
O	6.3346992622250005	4.990219629310001	-6.157117535599999
O	5.979053172225001	4.49803374931	-3.9191718155999995
O	5.491728072225	-0.0070177006899991845	-3.6173906255999997
O	5.609006852225001	5.19982547931	-4.8862651355999995
O	4.190307162225	5.351257669310001	-5.039650765599999
O	7.226968972225	-1.6146926406899995	-1.1541263235999994
O	3.5742770622250006	4.18557803931	-5.674836345599999
O	5.135012282225	-2.5811105406899992	-1.4107097805999995
O	4.156483652225	3.742672399310001	-6.816346385599999
O	4.117871412225	0.46889474931000064	-0.12795769559999948
O	4.156580202225	2.3760814833100006	-7.0396664256
O	4.7275852222250005	-0.6527288206899993	2.5896970944000004
O	3.622298212225	1.5964012173100008	-6.0258878855999995
O	5.019430212225	-2.603037110689999	1.6166511244000006
O	3.6428253522250005	1.9303443223100007	-4.687645075599999
O	3.3535683122250006	3.2656665593100005	-4.618655025599999
O	4.5235056222250005	1.3657763333100008	-3.6530735955999996
O	4.145500992225	1.5033724853100008	-2.3196377725999993
O	4.437837042225	0.4593705093100007	-1.5051454815999994
O	5.552378872225001	-0.2683626706899993	-1.9151969645999996
O	5.996911042225	-1.5227674706899994	-1.2785346375999995
O	3.8831059922250004	-0.7954721806899991	0.4324303444000006
O	4.814195472225	-1.2221543206899992	1.4853160944000003
O	3.238398292225	5.892572239310001	-4.1366901255999995
O	2.7347863722250003	7.13797477931	-4.861702365599999
O	1.3285071732250002	7.586634449310001	-4.6223120155999995
O	0.42366270222500024	6.732585019310001	-5.5026738455999995
O	1.2418234532250003	5.454351249310001	-5.6435144556
O	1.8340732582250003	5.213904819310001	-4.229336925599999
O	3.6049397422250005	3.2370868693100006	-1.8095392922999995
O	-1.012573337775	14.30709143931	0.8632480144000003
O	-6.252564897775	13.948669339310001	0.7917733944000007
O	-0.2739505177749997	-5.106564230689999	-9.1714508356
O	0.7365297792250003	-1.3897845906899993	-9.430783005599999
O	-0.2054641777749997	1.0921554693100006	-12.1996817456
O	-0.2845541177749997	3.9775776193100008	-9.681533865599999
O	-2.1791884377749993	2.3136843143100005	-6.8550877856
O	-5.917006787775	1.8617266733100006	-7.6183295056
O	-9.130219537775	1.6102088663100007	-5.6545597856
O	-7.994622797774999	-4.03026318069	-6.303629345599999
O	-6.1492957677749995	-4.781443340689999	-0.7836100155999994
O	-2.9110326777749993	-5.39405051069	-2.7188018515999994
O	-1.0106603077749996	-8.697858660689999	-2.2830052495999995
O	-0.48347140777499975	-9.74968856069	5.9220487044
O	2.2335889222250005	-7.15184412069	6.5268765644
O	4.7498438022250005	-8.13507266069	3.8343526344000005
O	11.266606762224999	-8.603493960689999	-6.1383241656
O	5.543843302225	-8.579679160689999	-3.8418620055999995
O	8.507444972225	-1.9909865606899997	2.4547509944000008
O	8.356794652225	1.7440785943100008	2.9936595744
O	9.609961612225	1.0455986993100006	6.5287714444
O	-2.784583437775	-6.28586507069	2.8250717544
O	0.8635751852250003	-5.66817649069	2.1716783544000005
O	2.113901842225	-5.414833150689999	-1.3763568555999994
O	0.29352214422500034	-2.242864870689999	-2.5990602605999995
O	-2.243173407775	-2.303412740689999	0.28946058440000044
O	-1.5957995777749996	1.3576494583100007	1.2576786244000004
O	1.6592912632250003	1.9247444713100008	3.1595629944000003
O	2.0892382572250003	-0.6727235706899992	5.8713025644000005
O	-1.652265437775	-1.5169423506899995	5.5753288544
O	-2.5918431177749994	2.1483813599100006	6.1370622944
O	-0.2960669777749998	2.288228324310001	9.1870609544
O	-8.334705537775001	4.383106579310001	-0.5099719555999995
O	-5.494792217774999	6.4837435693100005	-1.9219079165999995
O	-1.9590666877749998	6.742381719310001	-0.5485495255999995
O	-2.669070127775	5.361051569310001	2.9848057144000006
O	0.5861064952250002	5.699958189310001	4.8440271244
O	3.4254537422250007	5.999557049310001	2.2973168944
O	6.179479182225	7.81813152931	4.2180572844
O	5.210789382225	5.607822949310001	8.9026103544
