73

O	-2.0255868810431368	-1.6768371736254903	1.9355724574117643
O	-3.2889269490431365	-1.5293873236254902	1.4964992974117644
O	-4.483349071043136	-1.1204753036254904	1.8329175174117645
O	-3.3375649780431367	-1.5169994236254905	-0.017608469588235615
O	-2.998370287043137	-0.1367720136254904	0.002578410411764376
O	-0.4830634910431366	-0.9046856636254904	0.9050590674117645
O	-3.7978301210431367	0.9205618109745096	-0.3076901254882356
O	-1.8005418890431368	0.8688458134745096	2.0780560374117645
O	-3.711705801043137	2.1047658163745098	0.33789811641176437
O	-5.721082921043137	0.33839110937450967	-1.0786048685882355
O	-3.9489146210431367	3.2536254563745097	-0.3299187815882356
O	-3.8027931910431367	3.19095086637451	-1.7190014725882357
O	-4.3884201010431365	2.0349944963745097	-2.268055692588236
O	-4.5970142010431365	0.9847918103745096	-1.4549925725882356
O	-6.946283301043136	1.0476854033745095	-1.3729516325882356
O	-4.989033181043137	4.1277877263745095	0.11864406641176439
O	-6.3780159010431365	4.00615070637451	0.12007236641176439
O	-7.133452591043136	4.9633738963745095	-0.5591855625882356
O	-6.662608401043137	6.246511066374509	-0.5620488995882356
O	-5.482526161043136	6.3955655563745095	0.15948927441176436
O	-4.5537110810431365	5.4128850763745096	-0.05406164258823562
O	-1.6397207710431367	-0.15738444362549042	1.0975831174117643
O	2.407397868956863	9.09115162637451	-7.222735672588235
O	0.3834274489568634	5.90366695637451	-7.433896872588235
O	-2.460619798843137	7.20777599637451	-5.256932382588236
O	-3.7951789310431367	10.770651046374509	-5.074247032588236
O	-4.434302011043137	10.417056396374509	-1.3441061225882356
O	-1.0888923610431367	8.793552786374509	-0.3198446177882356
O	1.7987374189568635	11.133470256374508	-0.12656979058823561
O	4.9978387389568635	11.40414835637451	1.8948473174117646
O	6.875965888956863	8.64136302637451	-2.863722782588235
O	8.850035658956863	7.24092712637451	0.07957230041176439
O	7.234028808956863	3.4753778863745097	-0.14271494738823562
O	4.586580618956864	2.7518467463745098	-2.725415312588235
O	4.946180188956863	-0.07886018462549038	-5.253232332588236
O	7.467265608956863	-6.56800081362549	-0.7154911245882356
O	4.1147006489568625	-7.377133433625491	0.8492492974117645
O	1.852773358956863	-7.309040533625491	-2.2528750125882357
O	1.4756182989568631	-9.00232769362549	-5.584191982588235
O	1.9993657389568633	-7.19221546362549	-8.889248622588235
O	-1.6694293510431368	-7.8826721436254905	-9.745013912588236
O	-4.362357161043136	-7.82534965362549	-7.063197782588236
O	-8.142139931043136	-7.72983032362549	-7.5826172725882355
O	-7.613366621043136	-7.526434613625491	-11.376276432588236
O	-5.521673551043136	-4.34212053362549	-11.057224232588235
O	-1.7596001340431369	-3.7312499436254907	-11.302647832588235
O	-0.7185628310431367	-2.5399553836254904	-7.839691422588236
O	3.026907988956863	-2.5262778836254904	-8.596019242588236
O	-4.355670311043137	-9.59272414362549	0.6817475124117643
O	-4.7522564110431365	-5.86591825362549	0.15115030241176436
O	-6.501180541043137	-4.14097453362549	3.0640998474117644
O	-6.372237221043137	-7.63683082362549	4.632667177411765
O	-4.347408551043136	-9.604502843625491	7.201891617411764
O	6.482113258956863	-1.5902179836254904	0.30937357941176435
O	3.064517848956863	-2.88941377362549	-0.6243598855882356
O	0.9124467589568632	-0.9556171336254903	-3.1122565925882357
O	0.32759187895686326	2.2751855463745096	-1.2721883725882357
O	3.0564803289568636	1.6270817473745096	1.2732654674117643
O	1.0443511989568632	2.3032304163745096	4.404423007411765
O	-1.3943746840431368	-0.5677344236254903	5.174627397411765
O	0.4202447789568633	-3.9101599636254907	5.017618057411765
O	3.7188855889568635	-1.9667090836254904	5.189055627411765
O	2.620397268956863	-0.18705604362549033	8.409816197411764
O	1.5247359289568632	-3.51836228362549	9.912654067411765
O	2.3768168489568633	8.104227106374509	11.775751067411765
O	4.004726368956863	8.664290686374509	7.0230524274117645
O	0.2266724389568635	9.030099036374509	6.779661807411765
O	-2.238752214043137	6.2031687563745095	7.075889797411764
O	0.006404428956863217	3.5043436963745096	8.557019587411764
O	-2.2359613310431365	0.5586922163745096	9.112102627411765
O	-5.297561931043137	0.9187254712745097	6.9848460374117645
O	-7.990774321043137	-1.1076678536254905	8.706358497411765
O	-4.750909011043136	-4.8546751436254905	10.515976967411765
