69

O	7.899516395833333	1.9976076060392165	-2.038956202372548
O	7.505108865833333	1.3671348390392164	-0.8233876833725482
O	6.074713235833333	0.9699870988392164	-1.037463696372548
O	5.579684975833334	0.6587704020392164	-2.295015832372548
O	5.916020625833333	1.7698898770392164	-3.2500152223725483
O	6.767374255833333	2.7456621230392164	-2.495237992372548
O	4.745876435833333	0.48212787303921645	-0.05479493237254812
O	3.8274039558333333	-0.3252916969607835	-1.1906451983725481
O	4.617018055833333	-0.34483556696078366	-2.286653302372548
O	4.234709375833333	-1.0902039569607838	-3.500918042372548
O	4.935394965833333	-2.1311123869607838	-3.7065321123725483
O	4.053133205833333	-0.29489806696078347	-4.638968252372548
O	2.979513665833333	-1.4212049469607835	-0.8149256563725481
O	2.2120224658333334	-1.2626880069607838	0.34911518362745186
O	0.9846287578333334	-2.0123032469607836	0.513603817627452
O	0.20183742583333333	-1.5932999269607837	1.420715697627452
O	0.28233905183333335	-2.3155034569607835	-0.6318432063725481
O	2.7676395058333334	-0.5811892869607835	1.225747117627452
O	-0.8202068791666667	9.828629033039217	-6.6034966823725485
O	-0.020503412866666657	6.167800413039217	-7.228452492372548
O	3.4958282258333333	6.335133103039216	-5.740936552372548
O	5.876011975833333	9.352307703039216	-5.918169702372548
O	7.227161665833333	8.518629953039216	-2.4224788823725483
O	3.885044955833333	7.950454733039217	-0.6394367803725481
O	1.9556323758333332	11.133319673039217	0.17454329662745194
O	-0.4772690141666666	12.288768073039215	2.850359037627452
O	-4.141128594166667	10.592912563039217	-1.339835492372548
O	-5.787624464166667	9.711089303039216	1.982984167627452
O	-5.6052684741666665	5.647987983039217	1.4332293076274518
O	-3.8618728641666666	4.261082603039217	-1.655329172372548
O	-5.612288324166666	1.8516545120392165	-4.029009592372548
O	-9.099722864166665	-3.7708034969607835	1.030757487627452
O	-5.905378044166667	-5.690269356960783	1.7840898976274517
O	-4.466449244166666	-6.152614426960784	-1.738706432372548
O	-5.550300464166667	-7.710638286960784	-5.019941402372548
O	-6.130061114166667	-5.582056516960783	-8.129149472372548
O	-3.1998234141666666	-7.3984882869607835	-9.770515292372547
O	-0.12554586716666666	-8.415721006960784	-7.791415212372548
O	3.223474175833333	-9.568496726960785	-9.169390152372547
O	1.9636595458333332	-8.955708256960783	-12.741294512372548
O	1.1703072458333332	-5.289135616960784	-12.034420112372548
O	-2.0804175141666668	-3.4162234869607833	-11.383979812372548
O	-1.8507312941666667	-2.1750669669607836	-7.799229222372548
O	-5.408192104166667	-0.8596640369607835	-7.680420182372548
O	1.1459766158333333	-10.418256526960782	-0.28363664237254815
O	2.637324185833333	-6.989767916960784	-0.9074645233725481
O	5.465493885833333	-6.333949356960783	1.592033917627452
O	4.369441765833333	-9.595343526960782	3.1874084976274517
O	2.3937463858333334	-10.927957126960784	6.143017897627452
O	-6.361513224166667	0.5716260050392165	1.7273193576274517
O	-3.851838454166667	-1.6774642869607836	0.07092086462745184
O	-1.7822829141666667	-0.39131371696078365	-2.849810842372548
O	0.06784101903333334	2.4452804530392163	-1.157832788372548
O	-2.0567033841666666	2.5341963030392165	1.943312607627452
O	0.7085648728333334	2.2445303730392165	4.518574427627452
O	2.208672555833333	-1.3107400869607835	4.793155647627452
O	-0.5747610381666667	-3.8909535969607836	5.0376504876274515
O	-2.9388284241666667	-0.9970702369607833	5.899658957627452
O	-0.6728877431666667	0.1374931570392165	8.802345977627454
O	-0.42901720516666664	-3.467493776960784	10.040269287627453
O	2.950440555833333	7.696316033039216	11.94851008762745
O	0.6008110788333334	9.074931413039216	7.694935597627452
O	4.150000385833334	8.188388613039216	6.585848427627452
O	5.591224965833333	4.713780123039216	6.346123987627452
O	2.9539830758333334	2.7861648130392167	8.33490812762745
O	4.197138225833333	-0.7638600469607835	8.432319687627452
O	6.675399855833334	-1.2996497669607834	5.625208297627452
O	8.864719425833334	-4.176329266960783	6.7505673476274515
O	5.032717315833334	-6.807441226960783	9.304299267627453
