18

O	46.56169074969924	10.773663395938158	-0.4705643227094978
O	47.388762516467715	11.343840246479136	0.538834946705097
O	46.47776391155734	12.241380836381964	1.3227940956283248
O	45.382019095462226	12.865093950516671	0.7440237609445575
O	44.54577091449287	11.840107718542534	0.026874428871126455
O	45.28400468659486	10.540243155467707	0.1321240656799505
O	46.51470121740614	13.025705023903582	2.855916721804725
O	45.39902866450445	14.238094654455965	2.5828099035710554
O	45.101981014754436	14.12010855950196	1.2735391373899771
O	44.23663369590418	15.098620714697221	0.5862445458545062
O	44.85648675558018	15.851160011216095	-0.22923672609134105
O	43.05001352282972	14.560447369101638	0.07372912298430556
O	45.52334700402528	15.51065215460606	3.2424051506628757
O	45.81569616117426	15.481470460670831	4.608188840979048
O	45.43486545841768	16.586065570614057	5.459916577326898
O	45.48705485871028	16.373141923810337	6.709003727008396
O	44.27526057377511	17.256070783398457	5.12622928728315
O	46.45536956402575	14.489423490518304	4.983229135753733
