74

O	73.09895858113478	20.873709354402845	38.22638675990663
O	72.99398465714695	17.072062384272684	38.530319693375056
O	70.30920206913166	18.459179852081814	36.69921281987018
O	67.32785312491035	15.368465427128985	35.013279213996334
O	69.82439856638996	12.776663178411878	36.620742079509476
O	72.95679564754074	21.1055835319238	35.82031866351571
O	73.93702123307713	21.92932957435018	35.90344573082666
O	69.53849436448886	18.652012034107592	31.036956629315306
O	69.87581313707437	20.43397923340143	31.93084876976226
O	74.55340572405741	21.26230910331279	37.843741408476134
O	73.27060777376369	15.863547514452344	37.762680235934866
O	70.1365396197388	18.598686139395383	35.27465080735993
O	67.375274753782	15.15886967314696	33.52186727914085
O	70.98976370989118	13.540329258778497	36.91439765189688
O	75.08909844867739	19.982087456597966	37.34208602821204
O	73.00875895207308	15.961555178002977	36.31667756217584
O	69.54038366361264	18.229265016395797	34.17532336799431
O	68.15903044644388	13.839713270059512	33.369941568655605
O	70.2556046754475	14.646612124339477	37.68534947993362
O	74.2374210099962	18.800685335264177	37.41171286281095
O	71.78118085701554	16.61063519212264	35.862136595600184
O	68.59286789977386	17.027932657057722	34.14410619558629
O	69.15555359205742	13.647940124083572	34.4383390436605
O	70.54579237288299	14.520470323034955	39.11015013167649
O	74.1764982386815	18.321643350207452	36.27063067859306
O	71.68952402928713	16.895536528735636	34.68192041179697
O	68.8734554398725	16.469008465693918	32.91975323296241
O	70.28514385324885	14.216517053801597	34.339367057952444
O	71.49203926269173	13.787351203688907	39.45160864826728
O	69.67319606038957	15.17060313795647	39.942224974466534
O	72.16816269500858	20.50855573245829	29.20285205202753
O	73.23998802439453	20.18643744588604	39.498892823419986
O	75.56177416190489	24.606525577609244	28.493945017596445
O	72.64995539925822	20.308014817365997	37.02221922650038
O	73.41195461191465	22.239115225174356	26.449789097070283
O	72.34257908238403	19.704300411394023	40.274984415618064
O	71.82990402794692	21.66398389696701	28.342129211510755
O	73.10318069846477	16.581222998311844	39.970427488740086
O	77.11574848758949	24.556046028073354	26.767924985719382
O	74.2398084743656	17.845810918055847	38.42757748440817
O	74.17177373181252	15.977005647178618	40.279078771421176
O	72.35130745960247	23.01799586808748	28.73090210615215
O	69.56107273621971	17.95653821093614	37.858444945857315
O	75.10360481054241	23.573916629599616	26.604072944019126
O	71.37476562081643	17.507841374682073	36.85455434114916
O	70.1051543494204	18.033147325959238	39.02914891849698
O	73.85570333465218	22.911527709889114	28.506564661390527
O	67.00284527749827	14.233018195477722	35.89298597224645
O	68.62886760457516	15.93139121598903	35.22413308388266
O	67.08150731147056	14.30232907833077	37.1616696433473
O	70.10020378693466	19.893576208618086	30.67940954151297
O	69.37531319089756	12.019689106606567	37.79978225812369
O	69.19058709581034	12.574164089739792	35.388935562129554
O	69.61852496879257	10.765511777912515	37.75361541786435
O	69.10728120873435	20.245086102463013	29.62280839875433
O	74.52117525283603	23.9904498195477	29.120160449433342
O	76.11515510042761	23.76534179302012	27.516299529541293
O	74.30759050147063	24.03994007128488	30.525622368332034
O	74.14215986172665	22.874334301586078	27.171327686268363
O	71.49813800059935	20.21930632860253	30.449306946369443
O	72.26260179004684	20.664390397207242	31.690180861120357
O	74.40535522208619	20.32607646914823	40.304216598495636
O	72.27071649698411	21.913512592998828	32.24133288192766
O	68.74805471185955	12.450433968077874	38.929711670340424
O	72.58582594697596	22.077231900536237	33.596605729990046
O	66.14132431137655	13.188499081590557	35.497944032614186
O	72.39305676192333	21.006739366767867	34.496944194574525
O	68.41803986734445	17.159146090352138	38.01317304561765
O	72.7195834829065	19.82363600925426	33.84487671008391
O	72.13148165525176	16.708881097849545	40.914696753519834
O	72.14570282314511	19.623246582672586	32.6225686918103
O	69.58449648710383	19.357690709888757	28.593389591235415
O	67.87791868809721	19.65265335431654	29.68506381279228
O	69.2678573996828	21.417631818450253	29.011252045451364
