79

O	-5.156261909658537	5.674871137514635	-5.088751497292684
O	-3.402083499658537	6.289148927514635	-3.3746117672926834
O	-4.2059637796585365	7.1832441475146345	-2.9661281172926834
O	0.9754264503414634	4.7987638675146345	0.12301392270731681
O	1.2813808203414632	4.258327087514635	1.8023691927073169
O	-5.114403429658537	6.855612337514635	-6.052365007292684
O	-3.8762684896585364	7.598267217514635	-5.658186227292683
O	-2.964774744658537	7.795418517514634	-6.796939697292682
O	-2.786800238658537	6.887340207514635	-7.631084127292683
O	-0.4068772396585367	1.8144912135146347	-0.4188551052926831
O	-5.3176612796585365	4.472989037514635	-5.976890427292684
O	-3.804187819658537	-2.802547222485365	1.3895073327073169
O	-3.8861910896585368	5.446871247514634	-4.427484207292683
O	-4.030434219658536	0.7872721175146347	0.6003099827073168
O	-4.509748899658536	4.436978167514635	-6.961231877292683
O	-0.47477709965853676	0.6090219075146346	0.4167005627073168
O	-6.112596419658537	-2.6749154924853658	1.9768426927073168
O	-1.9136944636585367	8.711449697514634	-6.588105117292683
O	-1.3254891336585368	-0.017403432485365133	1.4380903327073167
O	-4.760079269658537	-0.8977680324853652	1.5945096427073167
O	-2.4450310326585365	-0.8245470124853655	0.9889027527073169
O	1.1709896903414632	3.4426352355146346	0.7932167727073169
O	2.3266747803414636	3.3108604805146347	-0.2151471172926831
O	-2.579105143658537	-2.190605342485365	1.082232942707317
O	-4.942267949658537	-2.1258190224853655	1.2860843627073169
O	-1.3995620196585365	-2.9128968624853657	0.8734306827073168
O	-3.6989194496585367	-0.30427624248536533	1.0179128227073169
O	-0.18407046965853668	3.1118171125146348	0.17077671270731698
O	-0.9941295696585366	4.009107937514635	-0.7111270812926831
O	-6.638142479658537	4.278238317514635	-6.396218547292683
O	-0.6278081196585368	4.2597658075146345	-2.036775220292683
O	-1.1365612296585366	5.360622257514635	-2.747909027292683
O	-2.4509189786585366	5.617086227514635	-2.5040104772926832
O	-2.858819672658537	5.484808547514635	-1.2349649022926832
O	-2.299987299658537	4.384245507514635	-0.5446767462926831
O	1.8559085003414633	3.4136426605146344	-1.5624751782926831
O	3.0460704703414634	2.1685964675146345	-0.3340590872926832
O	3.275374820341463	4.267037517514635	-0.36741447729268306
O	6.2579588203414644	-8.664635812485365	-5.356368377292683
O	3.714222380341463	-6.1467474124853645	-6.616057477292683
O	5.0716174503414635	-2.8988157724853654	-8.076731737292683
O	3.9934030503414637	0.1593185475146348	-9.959184797292684
O	-0.37125467965853676	-2.6809804924853653	-12.566653617292683
O	-3.6310618296585364	-3.0914602624853655	-15.913955117292684
O	-6.003580419658537	-1.8189476024853652	-13.176726817292684
O	-7.760537019658537	0.45819660751463465	-15.760289117292684
O	4.084820220341463	-4.541985492485366	-1.929866753292683
O	7.041957400341463	-2.493821792485365	-3.173251197292683
O	5.950033940341463	0.8924649875146347	-4.541920967292683
O	2.6173543303414637	-0.7224075524853655	-5.472691097292683
O	0.12212708034146313	2.1692960925146347	-5.931639517292684
O	-3.2676452096585367	0.6076469875146346	-5.797251737292683
O	-5.491797219658537	0.2989326675146349	-2.794459027292683
O	-6.653553409658537	-3.285476142485365	-2.415670487292683
O	-10.221616739658536	-4.323293232485366	-1.577902112292683
O	-11.377219099658536	-5.714198872485365	1.7967446727073169
O	-6.676854979658536	-7.952770412485366	2.149325542707317
O	-8.650388409658536	-10.315555712485365	4.399905222707316
O	4.3095131903414625	-3.3234641324853653	2.598307922707317
O	7.024175160341464	-0.5943628724853651	2.591227692707317
O	6.093174300341463	2.9736476335146347	3.4190736327073172
O	8.559383920341464	6.003659847514635	3.3839329727073166
O	4.081917860341463	5.461401737514635	10.785252182707316
O	1.7357111803414633	6.546132867514634	12.229901682707316
O	2.552714150341463	10.856556227514634	7.226501402707317
O	0.2789087603414635	8.131630917514634	5.990096902707316
O	-0.49271354965853664	8.402862187514636	2.277409952707317
O	1.3862959803414632	8.469170667514636	-1.088920013292683
O	3.2289529503414633	11.708632487514635	-0.6108872112926831
O	8.125007920341464	1.5137217255146347	7.819523692707316
O	-1.3032220456585368	-4.631203972485365	5.139215842707317
O	-4.595340309658537	-4.0831831724853656	6.789445872707317
O	-7.790068149658536	-2.8010700424853656	5.252838822707316
O	-7.034682279658536	0.5838360975146346	6.630313312707317
O	-4.352804279658537	2.3369893245146347	4.677576582707317
O	-0.7790572796585367	2.5321096434146346	5.991828362707317
O	-2.2916937496585366	1.3207509575146346	9.265322282707317
O	-1.4513025076585366	-2.3583455724853657	9.528010482707316
O	13.967143120341465	1.0157681175146347	2.818672142707317
