18

O	68.62389031676531	11.447478832809274	28.640914857227585
O	66.7852870624501	15.17351578822226	27.330022911007052
O	67.40477440955028	16.452050698100916	26.83998780702908
O	68.33980678896889	16.817392065329805	27.933949323981302
O	68.07034740386827	16.087033971258656	29.056637170618373
O	67.35832422378977	14.967931777280263	28.70430318624671
O	65.4123387853658	15.338057491295565	27.31875394559232
O	66.45738243263156	17.362807319700945	26.43986756816598
O	68.3772148226093	13.866115493097888	28.614224825146266
O	67.74008384365318	12.765274160075462	29.15056787908841
O	68.89046856754456	11.353703260522648	27.202924072565352
O	70.0163049320067	11.531540883198332	29.492829384158714
O	67.78842215209076	10.111850983505999	29.08536714120405
O	68.71152356869938	18.167694173609963	28.0563707190373
O	69.93600363311388	18.774543621816022	28.375534264606753
O	70.83357650449604	18.334465138046912	27.595048405283077
O	70.1382336247829	20.112507303396985	28.94606542522187
O	68.813600577268	20.497862965423536	29.46239384784498
