77

O	2.3883997504067795	-6.131617521088136	-0.3310482368847461
O	0.2790639124067797	-2.815203491088136	1.548938815915254
O	0.2634684644067797	-1.3497529310881353	1.2161296659152538
O	1.7021596904067797	-0.9830383310881354	1.230258505915254
O	2.4400471004067796	-1.9664078010881354	1.826048705915254
O	1.7237017804067798	-3.1369356810881355	1.811222015915254
O	-0.5416301695932202	-3.008068391088136	2.6450466059152538
O	-0.6112812105932203	-0.6504824130881355	2.011716955915254
O	2.2440304204067796	-3.901091661088136	0.6256525189152539
O	2.2881914304067794	-5.212157451088135	1.055312495915254
O	1.3868599304067797	-5.865903051088135	-1.3673827040847462
O	3.900287640406779	-5.865963781088135	-0.8925340770847461
O	2.2387970704067794	-7.6971882910881355	0.1228833009152539
O	2.0339317304067794	0.3650572468118645	1.4517122759152539
O	3.0221587304067796	1.1884846189118645	0.8905903559152539
O	2.9207550104067797	1.1568631599118646	-0.3732061770847461
O	3.6144498204067794	2.3923789989118642	1.4875653759152538
O	3.2495590504067797	2.315714638911864	2.912600125915254
O	2.4357772704067795	-0.9375210910881355	-11.610282024084746
O	5.60930673040678	-0.5156019900881355	-9.551451314084746
O	6.16914168040678	-2.9882362610881357	-6.7227866840847454
O	8.75060041040678	-4.059624611088135	-4.161526344084747
O	7.22462901040678	-7.172678591088135	-2.634092564084746
O	4.27014249040678	-9.567707051088135	-2.304626534084746
O	1.9999541804067797	-7.844650421088135	-4.8426877340847465
O	-1.4166324095932201	-8.373046881088134	-3.1790557440847462
O	-2.3241906495932203	-4.832765571088135	-4.246120174084746
O	-1.1246414615932203	-5.584348561088135	-7.812731674084747
O	-3.3385544195932204	-8.703510151088135	-7.829207884084747
O	-6.44082617959322	-6.690977051088135	-6.966365524084747
O	13.785203160406779	-6.104159491088136	-6.074235704084746
O	9.46732571040678	-11.005905011088135	-5.043279204084746
O	4.46506752040678	-9.696848941088135	-7.160259064084746
O	0.32674518740677977	2.8938597789118643	-9.727837724084747
O	2.6681242704067794	2.3941236389118643	-6.776246914084746
O	1.5780333804067799	-0.8118395310881354	-5.054719164084746
O	3.901906330406779	-1.6234403310881353	-2.186934974084746
O	6.69954566040678	0.22541700721186453	-3.998499824084746
O	9.33735908040678	1.2388937039118646	-1.4073576540847461
O	11.543565460406779	3.709866568911864	-3.173515504084746
O	11.03287606040678	7.447380998911865	-2.767743184084746
O	0.7519663204067797	8.514982058911865	-10.653545224084747
O	-1.1288434585932203	7.003488848911865	-7.709313164084746
O	-0.05064020759322027	5.364953018911865	-4.473403724084745
O	-1.81735521959322	3.1876352189118644	-1.9072224240847462
O	-0.9429698315932202	4.019033028911864	1.715634255915254
O	-2.1613872195932204	1.9747503289118646	4.765881825915255
O	-3.4135554495932205	4.8238821289118645	6.958069135915254
O	-5.96707328959322	7.640691368911865	6.859562785915253
O	5.74862833040678	6.685453128911865	6.235351975915254
O	6.30138086040678	2.9947912389118643	5.527641075915254
O	5.47129956040678	1.6896566689118646	9.053060325915254
O	1.9955052804067799	3.1975952089118644	9.430028585915254
O	0.6013707524067797	0.1568920909118645	11.318344375915254
O	3.3973309404067797	0.2925277538118645	13.904329975915253
O	2.5681677604067796	4.0161843889118645	14.385534275915253
O	-1.2011165885932202	3.3475772489118643	14.688551875915254
O	-7.66487983959322	2.8661843189118645	7.325583115915254
O	-6.06295026959322	3.341657378911864	3.907495545915254
O	-5.67220326959322	6.102831488911865	1.3575843259152538
O	-5.19659086959322	6.3742746389118645	-2.399375064084746
O	-3.4507873795932205	9.631321258911864	-3.3091818440847462
O	-1.8165903795932201	11.276945988911864	-6.3151414540847455
O	1.97914487040678	11.158225388911864	-5.753284354084746
O	-10.03009278959322	6.6261563689118645	1.7071504759152538
O	-11.658463539593221	3.8499943489118644	3.715854055915254
O	1.0567657904067798	-5.459720881088135	12.928253775915254
O	0.22579836740677972	-8.669963321088135	10.993922775915253
O	-2.1429880495932205	-5.123828491088135	8.218157625915254
O	-4.29100515959322	-7.949790131088136	6.811746515915253
O	-6.43089628959322	-2.9411519810881357	6.083260305915253
O	-5.16037475959322	-4.815862181088135	2.9360825459152537
O	-8.76139238959322	-5.979232131088136	2.369538675915254
O	-9.887776039593222	-2.3234484410881358	2.1849942259152537
O	-6.83901549959322	-1.4246037510881355	0.02394984691525387
O	-7.92293688959322	-4.023950091088135	-2.5452793540847463
O	-7.04593262959322	1.1771863319118645	-5.108254564084746
