33

O	75.49117271593639	19.787604218647246	36.051714443826455
O	75.26154378741859	19.915335951219973	37.49730829569749
O	73.26043620459274	20.258636782734122	31.08474319954022
O	74.70411629315133	20.78843440515199	33.51395243584517
O	75.62424203860182	22.87529005990411	33.89762823190849
O	75.06139915478458	20.96268343425629	32.17923095104141
O	75.58936134492562	23.086173803575612	32.505967520074165
O	75.79297863280999	22.31797145587388	27.92350047975311
O	75.3171493715695	23.466521972746875	27.104347126868568
O	76.42290651479095	22.437094207341023	29.221924716607756
O	76.05776369235845	20.966026011868284	35.455270260795956
O	78.29521807674485	25.898931795274923	28.368791947624604
O	76.70370034522864	19.866642137361936	37.938158584421025
O	77.2322731048558	18.748747413544987	37.89266350291325
O	79.04929253991433	27.120685446510308	28.507032302768973
O	77.86172959731081	22.98486008339296	26.19968577350707
O	78.48544379342312	25.063362620911008	27.34865165728749
O	77.07236268712596	26.042969970908622	28.795327164951537
O	76.65917842002334	21.78512408412283	36.18689623859972
O	75.44724007575982	24.885151670767257	29.58006908679349
O	73.82036577777575	21.42533446332843	29.729733761153277
O	74.60475447911301	18.73596846829983	38.12442555802985
O	77.65009819982967	24.056015946402262	27.090729613303417
O	75.37218873083162	21.62642678252236	34.33233985024361
O	75.45832483763009	22.128177707017894	31.580379701749862
O	76.34253048896488	24.43127736790025	27.442716411472336
O	76.28651456050811	24.976686998668733	28.679992610097468
O	75.52954557357727	21.85912546963751	30.17321735774446
O	74.80830512472417	17.60927275877136	37.15672105126381
O	75.588781784044	16.561082426024832	37.83878614482862
O	75.5875477889191	16.514632583002182	39.069286487976626
O	76.28058264123206	15.710643258191194	36.987969299321044
O	76.91117281376931	20.62560728442977	39.04536354107401
