38

O	76.29211624456516	22.5990540412749	36.57773105663323
O	74.11887847059144	22.934695828106413	35.32987838902053
O	73.8949831962593	23.910452307458648	36.11106905617608
O	70.99849064137464	22.614783654608722	30.453602919639028
O	70.54921641306274	23.60584788625719	29.031682222448985
O	75.82737700474189	22.057738266646535	37.92511651799418
O	74.38409579349769	21.729904629989555	37.70295494844475
O	74.07535301454944	20.333466452845464	38.05093089813761
O	74.86993927792072	19.417985021111203	37.763520929295446
O	74.08602357659117	22.502158668005976	29.20271331833468
O	77.52288516455476	21.79787358323916	36.257295669749006
O	78.71622540637459	25.126367950842642	26.40920397362242
O	75.3790121643502	22.274591931987853	35.499165553378475
O	76.75333538563358	25.332352695780703	29.518135596531828
O	77.38085905923471	20.53998709675151	36.40046500732829
O	74.63081347175226	22.957312084578906	27.91742764949081
O	79.91579295319856	27.027619763113886	27.20687696119636
O	72.7052291381971	20.01233523141229	38.13537060273854
O	75.22948681049586	24.146712443898448	27.29591839583861
O	77.99021629495131	26.229078260871216	28.094694678501142
O	76.65886919065848	24.34714688073121	27.448615325048706
O	71.53305165132728	22.752620936255312	29.031721378179157
O	71.23793918192656	21.24323621096284	28.96511259934677
O	77.62413330358433	24.247201383161965	26.473383125835948
O	79.04085770428145	25.87813021462429	27.454838288098227
O	77.41670274030913	23.223108758901297	25.543419544089367
O	77.11493892288127	25.242537355533177	28.361870884872303
O	72.86035306797729	23.055358515998062	29.724311591211112
O	73.10822173115163	23.05117889417194	31.19998924184188
O	78.66291418837851	22.259456358525874	36.92416123424817
O	73.18574358250142	21.859719101996895	31.9271602582821
O	73.03987892991782	21.83710303397774	33.32524393192027
O	73.63311733757635	22.88478051285206	33.96025310893657
O	73.52415098011194	24.08083485414748	33.3670100071408
O	73.64489794893034	24.056592481288074	31.95815840341525
O	71.96555773332477	20.5260844515919	29.966982136043505
O	71.5769564418919	20.49451875716824	27.887649485071556
O	70.03896781763326	20.717510200098793	29.316639938268096
