53

O	-6.924036965529412	-0.4875315486764702	-2.201677038411764
O	-9.496678275529412	-0.7937467086764702	0.8272345065882356
O	-8.243223925529412	-0.16347754867647013	-2.465763428411764
O	-6.856427455529412	-0.9559058486764702	-0.7400552484117644
O	-9.285535155529411	0.5651444143235298	0.6116085475882357
O	-5.512625945529411	-1.14945712867647	-0.47763819641176436
O	-7.090103355529411	0.38115199432352975	-0.0021366264117643197
O	-8.383574395529411	0.8291904649235298	-0.4119219664117643
O	-5.886253205529412	1.0978307273235297	-0.6721355684117645
O	-4.871020205529412	0.03246299032352984	-0.2617514604117643
O	-3.670706545529412	0.31178454032352976	-0.9749357084117645
O	-2.564664431529412	0.026961173323529763	-0.09850920241176436
O	-2.470226063929412	-1.34670040867647	0.03557234758823569
O	-1.3685211055294118	0.5178009903235298	-0.6848774684117644
O	-1.2047357755294117	1.9383290513235298	-0.6170009884117644
O	-0.5729892055294117	2.3543921613235295	-1.7542875784117642
O	-2.569879794529412	2.4969989613235297	-0.6756148684117644
O	-2.6985034485294115	3.9776759613235297	-0.7750098084117645
O	-3.6349612955294117	1.6988453003235298	-1.3128845584117643
O	9.869183894470588	5.07419282132353	0.3276528415882357
O	3.858216484470588	10.82402747132353	1.0062434425882356
O	4.730302324470589	7.91873789132353	-1.3688014584117645
O	3.1592021744705883	5.20420087132353	0.7617116895882357
O	5.1070000344705875	2.16359291132353	1.7923699215882356
O	3.7189392744705887	0.32657132032352976	4.827619081588236
O	0.3468514944705885	2.02792798132353	4.429693951588235
O	-1.4812819585294117	4.581379511323529	6.527254221588236
O	-3.3020855415294115	7.50562959132353	4.912627601588236
O	-4.859830595529411	9.81087703132353	7.506499931588236
O	-0.1290020355294117	-5.39430523867647	8.948307851588234
O	-3.2452497735294115	-3.43937637867647	10.050370311588235
O	-3.372625156529412	-1.0208217186764703	7.1438347115882355
O	0.03440745447058813	0.33647434432352974	8.153924221588236
O	-5.031002235529412	5.47044981132353	13.873287041588235
O	-5.736139305529411	9.20361355132353	13.787826741588235
O	5.331882724470589	-3.50735202867647	-5.225180938411764
O	3.067311884470588	-5.11268044867647	-2.6344593684117643
O	0.5402321744705882	-7.88128769867647	-2.451405358411764
O	2.237610414470588	-9.10621801867647	0.7049109685882357
O	5.670483534470588	-9.20526487867647	-1.0069667284117645
O	3.7600615344705886	1.1940747013235298	-6.487666348411764
O	2.146353624470588	3.8064926813235296	-4.300603098411764
O	0.15622923447058845	5.99427463132353	-6.733124138411764
O	-3.2112462995294115	5.12458630132353	-5.250042468411764
O	-2.5428256845294115	1.3691847853235297	-4.912548838411764
O	-4.612111585529412	0.001673120323529731	-7.7337755484117645
O	-3.6934112155294114	-3.67931343867647	-7.316257828411764
O	9.540447058853374e-05	-2.8249508686764706	-7.119209368411764
O	-0.26395405552941176	-0.8691097186764702	-10.371947558411765
O	-2.097726016529412	-3.7822424586764702	-11.977691658411764
O	4.167157594470588	-10.43837777867647	6.940457861588236
O	-5.901039025529412	-10.02006637867647	-10.499922958411766
O	-8.421990775529412	-11.65659427867647	-6.3049887284117645
