26

O	33.29966261597359	22.981088389595897	27.70129427430868
O	34.128520911996766	23.591667158021544	28.719066738087754
O	33.65907269371705	23.285790890799156	26.298679689373184
O	33.51977297353818	24.066279000477223	29.822665732334023
O	33.51980609253952	24.654170540360365	26.00697685617768
O	32.553614107673454	22.62351646815222	25.471806568700032
O	34.3948198487888	25.01755208794735	30.225178873953343
O	32.70955626882187	22.70199244007859	24.116520378127753
O	32.24860695454034	21.218624807441905	25.843076248322326
O	31.66647171436186	20.594876778040973	24.821207403064022
O	32.32263164724917	20.897928675317054	27.277780971002873
O	33.351221096009056	21.63681937786119	27.92349685368879
O	32.39438943088686	19.44175980755903	27.63575187960545
O	33.59391682382041	18.84115776994103	27.1807898691066
O	35.39808662308494	23.642440462224798	28.688522942188374
O	35.299134829252715	24.99279142067413	29.266946706548843
O	36.77317784161903	25.094998358768986	29.332554971383733
O	37.252840154685316	25.87650352450647	28.3855113566146
O	38.52513032140642	26.302839634088826	28.45377405741977
O	39.151239708866676	25.656433984580286	29.475041121748387
O	38.54751279054467	25.428519522081253	30.661325741860566
O	38.97618457815594	26.111069656997564	31.757120957213477
O	38.16454706828535	26.689233363683275	32.640206771998734
O	36.90906203517323	26.352853266730463	32.51314680218707
O	36.463066959373386	25.274350805542262	31.601254778563998
O	37.246578170634265	25.15383750737972	30.558526614565793
