19

O	39.93862087249123	40.342865740271996	30.250540140180323
O	43.868802684153096	39.86249652133954	29.792858457838616
O	40.74678290246248	41.400187838309506	30.629948845994488
O	40.857127333374564	39.25488446537307	29.673542380626074
O	43.6073220874853	39.77955108560293	31.157559526843446
O	40.033438153922596	38.17265335735073	29.423663870284003
O	41.56494534813943	38.76987238110937	30.958302642525357
O	42.25978747017238	39.90815196965787	31.4713755721151
O	40.24480208126143	38.40180509636034	31.688734296470322
O	39.738234940891175	37.49547128669544	30.567988860082618
O	38.37892341874147	37.19376355813537	30.865730047274614
O	38.141119878428135	35.82560178564052	30.486046271945245
O	38.12124812941636	35.76435238253146	29.104128679106186
O	36.87628772490084	35.41769869016509	30.985370829486584
O	36.84216270651939	35.15315047492672	32.391849605680335
O	35.6225736857798	35.53599079453447	32.873169601294016
O	37.829256482301034	36.072703919752655	32.99121025487366
O	37.90085727478466	36.123499366477	34.47819408999182
O	38.16585490898453	37.316755899169934	32.27246363763295
