50

O	1.239448459973684	4.845440291960526	-1.7801481459947373
O	1.180593889973684	2.5686019419605257	-1.8184178159947373
O	3.2822007799736843	3.563580891960526	-1.9186200159947373
O	-0.1351699540263157	4.864582841960526	-1.4567313959947372
O	-0.19636138702631578	2.546347741960526	-1.5953697159947373
O	1.8680760899736844	3.687329821960526	-1.4540291559947374
O	-0.7410374519263158	3.6576955319605258	-1.2107039159947373
O	3.2693750099736842	3.674768331960526	-3.158170075994737
O	3.8988206199736846	2.395257881960526	-1.5353915959947373
O	-0.7962688784263158	6.088483441960526	-1.6426128359947374
O	-1.0643270200263157	1.9076217509605258	-2.4292126559947373
O	-2.137919730026316	3.824019841960526	-1.1283947949947373
O	-6.826721810026316	-7.141133148039475	0.3958473270052627
O	-4.297394050026315	-9.788302048039473	1.1739818840052627
O	-11.922737940026314	-4.886250668039474	3.2657635940052625
O	-10.797175740026315	-0.8062004780394743	-3.2544089659947373
O	-8.607710220026316	-1.3259930980394743	-0.1066432111947373
O	-5.301084490026316	-1.0053989880394743	-1.9539068159947373
O	-2.5585731700263157	-3.452891618039474	-1.6112859259947372
O	-0.008986763026315736	-3.7860511880394743	-4.422981565994737
O	-1.0313211530263158	-0.41820847803947414	-5.624721735994737
O	-2.652182990026316	1.1052243964605257	-8.648631025994737
O	-5.173830870026316	3.955044011960526	-8.212342135994737
O	-6.475082520026316	5.119595661960526	-11.577637815994736
O	7.003900439973684	-2.479483538039474	-8.011238855994737
O	6.040945389973684	0.2863480369605258	-10.470375915994737
O	3.243955849973684	1.7452491469605258	-8.386871305994736
O	1.3647904399736843	-1.5656530480394744	-8.677559785994736
O	1.497876289973684	-1.4005478880394744	-12.454757415994736
O	-1.8416691200263156	-0.6861919280394742	-14.142403715994737
O	-0.38472335602631574	-5.740529058039474	5.069440334005263
O	1.6082200399736841	-2.753630888039474	6.395434534005262
O	4.134694379973684	-1.851474228039474	3.704780914005263
O	7.312869999973684	0.13398980296052576	3.149394154005263
O	8.649512609973685	-2.761866848039474	1.1179587940052627
O	7.702117249973685	-5.386475138039474	3.7414233540052626
O	7.782736009973685	-3.6692840980394745	9.457756864005264
O	-2.6392527500263157	0.08711244496052584	5.799630514005263
O	-4.458247250026315	1.3257712589605257	2.778552764005263
O	-6.382894370026316	4.416144101960526	3.895104094005262
O	-4.470407990026316	6.8928290619605255	1.7531807440052627
O	-1.0455768020263156	5.424179341960526	2.509514574005263
O	0.2731045099736843	8.025310821960526	4.928747384005263
O	3.6621698899736845	6.369471721960526	5.549046504005262
O	1.981985809973684	3.0233137719605256	6.236265824005263
O	-0.32858789502631575	4.707525051960525	8.748996534005263
O	2.657512479973684	6.430581041960526	10.350825084005264
O	4.324262619973684	3.043551151960526	10.857862384005264
O	8.207010679973685	-9.599136648039472	-2.5258558159947375
O	9.756496559973685	8.413462191960527	9.202113854005264
