95

O	0.046227129014492774	-0.6858782456811594	0.5248617910275365
O	-0.25539652798550727	0.5910273553188407	-0.08686408797246348
O	0.5387416570144928	-0.6404356156811593	1.9193908510275364
O	-1.3513088449855073	0.6705271243188407	-0.8655920082724634
O	-0.42433104198550725	-0.11516859568115922	2.7988987410275366
O	0.6442200670144927	-2.1111150156811593	2.3321155310275365
O	-1.6523851359855073	1.9871672253188408	-0.7736340752624634
O	1.1605292470144928	-2.334021365681159	3.577512931027537
O	1.339117807014493	-2.9883002356811597	1.3562803310275364
O	1.7995147270144929	-4.07587321568116	1.9705918710275365
O	1.106510617014493	-2.6860929256811596	-0.06543269997246348
O	0.9639927070144928	-1.2885893656811593	-0.2835546169724634
O	2.068741117014493	-3.29258361568116	-1.0452294289724635
O	3.379856867014493	-2.7794580156811595	-0.8894834379724634
O	0.47981907701449267	1.6249716283188407	-0.011199028972463498
O	-0.7538082896855073	2.4227675143188407	0.08626103502753657
O	0.03301852101449276	3.6750250843188406	0.1038124810275366
O	0.09408748101449271	4.198500724318841	1.3121012310275364
O	0.5262760270144927	5.460718524318841	1.4707323410275364
O	1.0046511470144925	5.914579224318841	0.27993120102753666
O	0.38705501701449274	5.65195401431884	-0.8919499419724635
O	-0.2336861809855072	6.668895364318841	-1.5483888179724634
O	-1.4475940079855072	6.57725533431884	-2.0877395089724633
O	-1.9135259829855071	5.358970404318841	-2.1527602589724633
O	-1.0838257739855073	4.17248589431884	-1.8405451089724636
O	-0.15900483798550724	4.436745234318841	-0.9514058989724634
O	1.6800817670144927	0.5941694563188407	-12.275036298972463
O	-3.196330512985507	-0.15556987568115943	-10.725294948972463
O	-3.757889572985507	-3.7896118756811594	-11.442720198972463
O	-6.3132189329855075	-5.31756808568116	-9.066621908972463
O	-7.111772792985508	-1.0435427456811592	-8.079537838972463
O	-7.6769242929855075	0.2634878183188407	-4.512425688972463
O	-6.196532042985508	-2.4730409556811592	-2.4358128589724632
O	-2.7113760829855074	-3.6634175756811596	-1.5646850179724634
O	-0.6583717579855073	-1.834783085681159	-4.196848598972464
O	-2.932639002985507	-2.91502013568116	-7.023678638972463
O	-3.278498572985507	-6.496239525681159	-5.808225098972463
O	0.5279887270144928	-6.76353514568116	-5.485839758972463
O	0.9308366770144928	-5.82373808568116	-9.147566088972463
O	-1.5647768579855073	-8.588605875681159	-10.013299578972463
O	0.20221176701449284	-11.25889646568116	-7.929542508972463
O	-10.353631292985508	5.7714609043188405	-5.113683828972463
O	-7.607280672985508	6.814049044318841	-2.6557844989724635
O	-5.614012102985508	4.253941574318841	-0.7537232138724634
O	-2.8318369029855073	5.55657921431884	1.2572223110275362
O	-3.447384262985507	9.192241174318841	0.2693970410275365
O	-2.1985165329855074	11.93781663431884	-2.1408159889724634
O	-4.651006092985507	14.18662603431884	-3.9505989689724634
O	8.179348817014493	1.7288785863188407	-10.869356698972464
O	5.387468307014492	0.5424550943188406	-8.629209398972463
O	5.450348837014492	3.4756857843188405	-6.136668618972463
O	6.141929477014492	7.04229813431884	-7.445611008972463
O	3.0174087870144928	7.14734981431884	-9.697017748972463
O	7.948377907014493	8.44639394431884	-11.708755298972463
O	9.524619957014492	0.4869531543188407	-5.061013548972463
O	8.432247187014493	2.4431992843188404	-2.0369780189724636
O	4.992045437014492	1.4392307963188407	-0.4984845879724634
O	4.5491779970144925	3.6051859343188406	2.5588234110275363
O	6.148551187014492	6.12291635431884	4.891996741027537
O	3.104109217014493	8.109076554318841	5.951599651027537
O	3.465160097014493	11.80094503431884	4.848455681027537
O	-0.08914538098550728	12.238591834318841	3.4586219310275363
O	0.6156049370144928	9.61436960431884	0.9853214810275365
O	3.7908042270144926	11.343101734318841	-0.40066400197246343
O	11.084864357014492	-1.2771268656811594	0.7412851110275366
O	8.373234897014493	-3.94589775568116	0.8857041610275366
O	9.195323957014493	-5.721304345681159	4.182082821027537
O	9.889189257014493	-1.0361054856811591	6.437522391027537
O	13.112154457014492	-1.1296828156811591	4.422069221027537
O	13.500883557014493	3.9507818643188406	5.117668181027537
O	6.041459517014492	-8.71953967568116	-0.5369541179724635
O	4.3114911170144925	-11.98155836568116	-1.2871211569724634
O	1.0469388970144928	-13.348629665681159	-2.6516645989724634
O	-8.795473062985508	-4.14472395568116	4.295585731027537
O	-9.325507352985507	-0.5197885456811593	3.3597331910275368
O	-10.789882582985507	1.5495239863188406	6.225755291027537
O	-7.967635962985508	3.6541164243188407	7.718168411027538
O	-3.684144132985507	3.7529060343188405	10.869037701027537
O	-5.136489192985508	0.2673615723188407	10.296732801027536
O	-7.057634202985508	0.7065403003188406	13.563958701027538
O	-13.419275442985507	-2.4883559656811594	3.6687687310275368
O	-14.047260242985507	0.6017414103188407	1.5825480110275363
O	-12.088862142985507	6.733143554318841	0.1928374930275366
O	-3.442533962985507	-7.22040631568116	11.516196801027537
O	-1.875082922985507	-1.3598700956811591	12.605600801027537
O	2.798578087014493	2.3524826443188407	9.868483701027538
O	1.9049933070144927	-0.7105897556811593	7.649977421027536
O	4.8468854270144925	-1.0218344456811594	5.230883291027537
O	4.1867880770144925	-4.707909305681159	4.697524461027537
O	0.5963058570144927	-5.81036321568116	4.259592241027537
O	-0.41886096898550723	-8.78339106568116	2.1099620510275363
O	-3.824929772985507	-9.59283526568116	3.4567902610275367
O	-1.8866590629855073	-10.936930865681159	6.4566532810275366
O	5.400488857014492	-4.765276335681159	8.375018121027537
O	5.573473737014492	-8.37991174568116	7.273661711027536
