60

O	-2.0539620922926836	4.5568838903	-0.23883427514634148
O	-1.8999410022926835	5.5496797703	-1.1581486751463415
O	-0.6202440202926834	5.9874686103	-1.3636802551463416
O	0.3962645377073165	5.092744940299999	-1.1796773551463413
O	0.15152606470731655	4.1552907103	-0.1765577051463414
O	-1.0533611772926834	3.6006310803	0.09886572785365855
O	-2.1828465822926835	3.1256616402999997	2.0054158348536584
O	-1.3607058402926833	2.6396540083	1.1301067408536585
O	-1.0076821642926834	1.3534283013	1.4266537338536587
O	-1.5660086002926834	0.5635421302999999	2.4559698548536586
O	-1.1699174332926834	-0.5118366297000003	2.9638814448536586
O	-2.4459934722926833	1.2401347822999997	3.2567936048536588
O	-2.8002071822926835	-0.7695068797000002	4.6232103948536585
O	-3.2327529422926835	0.4486808202999999	4.080420434853658
O	-4.273734942292683	1.0469498403	4.690082044853659
O	-5.760255012292683	2.8322945123	4.890484834853659
O	-4.703175232292684	2.2613290292999997	4.185012484853659
O	-4.037131432292683	3.0490336872999997	3.2986159448536583
O	-2.9964236922926837	2.3720333143	2.6682695248536588
O	7.382895237707316	-7.1894817597	3.5245248148536588
O	9.285264847707317	-6.6177483997	0.33786894985365856
O	3.315267017707316	-5.9628678897	10.697255764853658
O	2.3888535277073166	-6.7721909397	7.035877714853659
O	2.4652127577073166	-3.1457362396999997	5.856443704853659
O	4.473124607707317	-2.1199235397000002	2.9042651848536583
O	5.366156367707316	1.5438388772999998	2.6902919348536587
O	2.6602257377073166	2.4361425673	5.109772484853659
O	2.7518428377073163	3.7674130103	8.61199689485366
O	0.2957159577073166	2.3642803603	11.13136897485366
O	0.8887076577073166	3.9623182803	14.57655197485366
O	5.370899127707316	9.1700614803	0.13095980585365852
O	3.6521906077073165	10.8105936103	3.154201084853659
O	1.6120635377073165	7.8202230503	4.351992684853658
O	4.833696237707317	5.923294460299999	4.891108594853659
O	6.232345507707317	8.654753530299999	7.1477398648536585
O	6.496213217707316	7.7282069403	10.811797944853659
O	3.6584875777073167	-5.6622548097	-3.488274555146341
O	0.22206159770731648	-4.4807747097	-4.684525905146341
O	0.07968428170731656	-0.6244759497000003	-4.445683555146341
O	-1.7400607222926834	2.1454231349999997	-6.157097155146341
O	1.5797425477073164	3.8855581003	-6.6957799551463415
O	3.0990053977073164	0.7990845502999999	-8.432445225146342
O	0.23247359770731657	0.9238816502999998	-10.92192752514634
O	-0.6599306002926835	-2.7592450296999997	-11.34670612514634
O	-3.8589537822926836	-1.0586003497000003	-12.521748725146342
O	-1.7263290152926833	-6.655563519699999	-0.4541443451463414
O	-1.5319895312926834	-5.3173547797000005	3.1189018548536582
O	-4.579304082292683	-6.8822198897	4.841260554853658
O	-6.144001792292683	-3.5665138197	5.587821554853659
O	-5.479757762292683	-1.9096633997000003	2.2046387448536584
O	-8.872083132292683	-2.1223566397000004	0.6403525698536585
O	-8.001569532292683	-0.6433163897000003	-2.7551914851463417
O	-5.0631772122926835	-3.0524495197000006	-3.0705638551463412
O	-7.356548652292684	-6.000560569699999	-2.364322845146342
O	-9.829316312292683	-4.6755843597	-4.9196411451463415
O	-7.059539762292683	-4.6357748597	-7.5510908851463405
O	7.130949657707316	7.6241060903	-6.3980690151463415
O	9.366798247707317	4.5092444603	-6.412632165146341
O	-11.884329752292683	1.3644498892999999	-8.792597185146342
O	-11.052986052292683	6.421783320299999	-7.944552005146342
