55

O	1.7481000817428576	-3.5893537891142855	5.535979163514286
O	2.8843924217428576	-3.9328959791142855	6.245376183514287
O	1.5026409617428576	-2.081007149114286	5.523511313514286
O	1.8894758517428576	-1.600202249114286	4.279544933514286
O	2.2823258717428576	-1.5672046991142858	6.700930903514287
O	1.5701572917428575	-1.4438079591142858	7.870466613514287
O	2.8702725817428574	-0.24898515911428598	6.210239333514286
O	3.0744624817428576	0.4369871738857141	7.3942827035142855
O	2.0568954317428574	0.47982959488571414	5.151271473514287
O	1.1315102817428575	1.179443986885714	5.902274233514286
O	1.5504459617428576	-0.31670817911428584	3.9960498835142864
O	1.7879791417428574	0.2526443668857141	2.5919692705142863
O	2.2438630917428575	1.4701748398857142	2.6204213935142864
O	2.4574353617428577	1.9339375408857142	3.7563673335142864
O	2.1816898417428576	2.239284020885714	1.4844339665142863
O	1.4586438217428574	1.897725990885714	0.4377053135142863
O	0.5443333597428576	2.706513170885714	0.2009955735142861
O	1.0986642017428576	0.6348338148857141	0.4330263935142864
O	1.1723948517428575	-0.2012599291142858	1.5314301125142862
O	0.5713097907428576	-1.263034899114286	1.7541019825142863
O	5.740643121742858	8.804543480885714	-6.548357826485715
O	2.0062953817428575	7.977634450885715	-5.947954056485715
O	2.6541982017428576	4.404115760885714	-4.993935566485714
O	0.8201175137428576	1.4872059588857143	-6.353025876485715
O	2.5351199417428574	-1.8550809691142858	-6.0570146464857135
O	4.5400129917428576	-0.5770030691142858	-2.9886736464857138
O	8.274296801742857	0.050171076885714094	-2.7413565964857134
O	9.487087671742858	3.1264729508857143	-0.8822797064857135
O	13.298815041742857	3.307107490885714	-0.8328317664857137
O	3.8529364417428575	-9.323346899114286	-3.391515136485714
O	7.023209191742858	-8.682916739114287	-1.2985223464857136
O	6.431355031742857	-5.0818397891142855	-0.4247639464857138
O	6.431989641742858	-4.140638019114286	-4.119639876485714
O	15.514787541742857	-3.8245692691142863	-2.6860792364857136
O	17.843311641742858	-0.823696119114286	-2.5542163764857135
O	-7.364913738257142	1.0640939858857141	-2.7126636464857135
O	-5.480892228257142	-1.932820789114286	-1.3674962864857139
O	-5.845219588257143	-4.506117689114285	1.3477975635142863
O	-5.091192108257143	-7.180313789114287	-1.2564157264857139
O	-7.842382058257142	-5.904993799114285	-3.6265246364857133
O	-10.265813958257143	-6.394604189114286	-0.7252143664857136
O	-5.027856258257142	5.476588720885713	-1.7668416364857138
O	-1.2589838482571425	6.057256690885714	-1.6572468864857135
O	-0.9952116102571424	9.166406790885715	0.6029283535142862
O	0.9883012917428575	7.429355830885713	3.2781854655142864
O	-1.0934791592571425	4.179652270885715	3.2591053035142865
O	-2.9523937982571424	4.492861260885714	6.529404903514287
O	-5.108255758257142	1.3736264508857141	6.240499493514286
O	-6.099057878257142	2.277719730885714	2.663571028514286
O	-7.184118458257142	5.720845810885715	3.833302793514286
O	-9.126962808257144	4.137760230885714	6.680756133514286
O	-2.3594801682571425	-11.721978899114287	-5.367645996485713
O	-7.763786478257142	-0.4434332891142858	13.475867233514286
O	-9.873006618257143	-2.074889179114286	10.756453713514286
O	-6.709470928257142	-6.065176449114286	11.632343803514285
