52

O	-2.545350109157895	0.3980114943157894	-4.708029095842106
O	-2.001620954157895	1.2495481933157893	-3.8108653758421056
O	-1.1284066631578948	0.7642566803157894	-2.9331803158421055
O	-0.8912954961578949	-0.5403411316842106	-2.9113594758421053
O	-1.375120330157895	-1.4095858566842105	-3.8505826358421054
O	-2.366978729157895	-0.9387439976842107	-4.673541425842106
O	-1.1304951617578949	-2.6471309166842105	-3.414904405842105
O	-0.6605108051578948	-2.561751416684211	-2.1467680958421056
O	-0.2703020251578949	-1.2687451166842107	-2.0116231558421056
O	-3.5502418791578947	0.9153529223157894	-5.592480435842106
O	-2.5046035591578946	2.3691258533157895	-3.4905730058421054
O	-0.5630966361578948	1.5883676833157894	-1.8996664358421054
O	-3.002962169157895	-1.7908292366842107	-5.3221287658421055
O	-1.432756459157895	-3.8605876766842107	-4.1735322658421055
O	6.483914460842105	-4.1217357666842105	6.225984614157895
O	6.850090240842104	-0.9627565296842107	8.228084824157895
O	4.616171830842105	-9.96241410668421	7.395185064157895
O	6.137483720842105	-9.453038666684211	-0.2039498968421054
O	3.6541940108421054	-7.611645446684211	2.1027039341578946
O	3.696778170842105	-4.377172516684211	0.09641874715789461
O	4.444564850842105	-1.0810445866842107	1.7990365141578946
O	5.552023720842105	1.6986280733157895	-0.5593286278421055
O	4.310179220842105	-0.19082704468421058	-3.5711574158421056
O	5.986702270842105	-1.8211508766842106	-6.506308765842105
O	4.724302110842105	-5.17394617668421	-7.799590735842106
O	6.750721800842105	-6.36578048668421	-10.789273205842106
O	5.176604230842105	8.402810083315789	-4.962883295842105
O	5.236986160842105	6.86545918331579	-8.482698575842106
O	3.6134920808421054	3.5419935333157895	-7.606452915842105
O	6.543299740842105	2.7846777033157895	-5.295417355842106
O	9.056087210842104	3.3162289033157895	-8.094829795842106
O	10.756870710842104	0.15027721531578941	-9.317038415842106
O	0.329672660842105	0.9405067133157894	7.481366094157894
O	-3.109397669157895	1.6710470333157894	6.0246800141578944
O	-2.638606009157895	3.985787363315789	2.9965625341578948
O	-4.685586219157894	6.58489809331579	1.1846883441578946
O	-1.702059625157895	8.92142451331579	1.3687104741578946
O	-1.479081194157895	8.494385253315789	5.172046824157895
O	-6.566148769157895	7.329857963315789	8.040080824157895
O	-3.274480579157895	-3.269693646684211	4.574266034157895
O	-1.376280670157895	-4.916080696684211	1.7197423741578945
O	-3.552745929157895	-7.897358486684211	0.6646870841578947
O	-4.235996509157895	-6.63883200668421	-2.8281360858421056
O	-4.882046529157895	-3.0128943666842107	-1.8168177458421053
O	-8.657897209157895	-2.9124861166842106	-2.105437815842105
O	-9.159280309157895	0.6792925643157893	-0.9486192008421054
O	-6.9549275991578945	0.09345289931578943	2.109650504157895
O	-9.035695269157895	-2.9339336966842104	3.0372195341578947
O	-12.201308889157893	-0.8850670506842107	2.5799331441578945
O	-10.856348819157894	1.7329949333157895	5.0184863341578945
O	5.431081180842105	11.11265649331579	3.6165360541578946
O	-14.983332589157897	5.281479753315789	-0.5481300188421054
