14

O	38.89106678355899	36.92900973834937	29.895951893882607
O	38.30406271966987	36.00183487887406	29.107642377791585
O	37.54572307014533	35.074891074901146	29.685602822267565
O	37.322149931670076	35.14463507030374	30.99090896739491
O	37.95831024304848	36.02974890495114	31.81776237892475
O	38.637204190418295	37.05833826724157	31.21456817976556
O	37.35183929116042	35.97552382274254	33.005376539170626
O	36.246375889910496	35.20207527053208	32.878598541119366
O	36.44460229289994	34.50550364988047	31.730606115579445
O	39.63528616035052	37.974327604772874	29.253182983067486
O	38.10955016078258	36.14093723522892	27.861910368539384
O	36.8269331998499	34.100203664143216	28.910870038841086
O	38.96669881597672	38.011552041263386	31.945325677727357
O	37.78536091036146	36.724032328854825	34.184846527015445
