58

O	3.132187103583333	-0.08489500534166639	1.7990365073308339
O	1.987996523583333	0.7363272496583335	2.128710745330834
O	1.122869659583333	0.00516331465833364	3.0022094623308337
O	1.807732643583333	-0.9435778053416664	3.6953391823308337
O	2.231401393583333	-1.9239564253416666	2.8558526423308335
O	2.800120193583333	-1.4636747353416666	1.7360581991308337
O	0.7563950525833331	0.9161436526583335	3.8982889723308336
O	1.281417974583333	1.1046629826583336	5.207357422330833
O	2.363098023583333	0.3643437646583335	5.7041196223308335
O	2.504100833583333	-0.7349787553416662	4.953918682330833
O	2.205135093583333	2.0085738806583335	2.7482727423308337
O	1.083056136583333	2.592053334658334	2.684206122330834
O	0.16044481258333307	1.9796534446583336	3.340042702330834
O	4.033687903583333	0.08510974465833354	2.7788200823308338
O	4.247072833583333	1.1141543256583335	3.668676432330834
O	3.275436973583333	2.0537976396583337	3.693163672330834
O	3.664830793583333	-1.3631997753416665	5.058799732330834
O	3.267733963583333	0.7062435086583335	6.664909932330834
O	-0.811228686416667	2.5336232046583333	3.750647542330834
O	3.180843843583333	2.9862764946583336	4.663469402330834
O	5.227507773583333	0.9712064996583336	4.598497652330834
O	2.034839593583333	-1.4170273353416662	0.7735143703308337
O	-6.896420496416667	4.097262204658334	-6.308281967669166
O	-6.784876896416667	11.680843474658333	-2.466376157669166
O	-3.952560746416667	9.741528074658333	-0.8687635876691662
O	-5.454190906416667	6.156211904658334	-0.7792196176691664
O	-2.150918716416667	4.369878154658333	-1.5504851276691665
O	-1.8720405464166672	1.9108968506583337	-4.302550747669167
O	1.6458754535833329	1.3390396056583336	-5.499959907669166
O	3.174899563583333	2.7844926246583332	-2.3751726276691665
O	5.1244425035833325	5.980137254658334	-1.8768348676691664
O	4.463737233583333	8.069895274658334	1.1980812693308338
O	6.808854613583333	10.991449904658333	1.5486672443308338
O	4.408031553583333	13.385174874658333	3.2876769923308338
O	8.617371013583334	-2.3921516053416667	-6.770688737669166
O	10.916111143583334	-0.16748284534166635	-4.619877187669166
O	8.274382223583334	1.0056019626583335	-2.0992138976691663
O	6.366441193583333	2.6467571546583333	-5.0744607876691665
O	9.437897373583334	4.620699224658334	-5.990677407669167
O	9.164494563583334	8.366158014658334	-5.452543997669166
O	-6.522413256416667	-3.6761688353416666	-4.341559107669166
O	-5.369979626416667	-5.8617114253416664	-1.4410152176691664
O	-1.5687923164166668	-6.285876355341666	-1.7366296976691662
O	0.7788608255833331	-9.086184025341668	-0.8755468876691661
O	2.223776583583333	-8.911391825341667	-4.366130277669166
O	-1.2744562764166671	-9.590780725341666	-5.8127898276691665
O	-6.327671516416667	-1.9434217953416664	1.6592885544208338
O	-4.441964406416667	1.2349508059583336	2.0494337073308335
O	-5.508348156416667	2.3399175446583333	5.570502292330834
O	-2.013900796416667	2.0573441106583337	6.919570412330834
O	-0.848851606416667	-1.1970804053416664	5.316973442330834
O	-1.1509458264166668	-3.4723789453416662	8.326950262330833
O	-0.6316179234166669	-6.766530745341666	6.455223482330834
O	-3.2010483864166672	-5.865248315341666	3.855127992330834
O	-5.642231376416667	-5.157336575341666	6.610705562330834
O	-4.848735706416667	-8.484373745341667	8.228868672330833
O	-5.510094886416667	-10.304757725341666	4.962007042330834
O	0.566884529583333	-13.615363125341666	8.619700712330832
