50

O	4.198852029366667	-5.369886616833333	-6.068517247333333
O	3.601705839366667	-6.393643056833333	-6.778076657333333
O	3.286805659366667	-4.145318186833333	-5.948159787333333
O	3.201991309366667	-3.7684481468333333	-4.638497897333334
O	3.809271179366667	-3.2550101368333335	-7.035513907333334
O	4.704409959366667	-3.7919117368333333	-7.914413057333333
O	4.412889069366667	-2.1638950968333335	-6.119625807333334
O	4.813915329366667	-1.2256478088333334	-7.085598577333333
O	3.513453909366667	-1.6291658068333332	-5.059665427333334
O	3.011446719366667	-0.44169341123333333	-5.483103127333333
O	2.675545419366667	-2.5449734968333333	-4.293666607333334
O	2.438944239366667	-2.3311982468333334	-2.9011485573333333
O	2.192871179366667	-1.1679039328333334	-2.260811657333333
O	2.680742699366667	-0.14877437083333334	-2.7835995773333333
O	1.7307815793666668	-1.0744414248333334	-0.9772741843333334
O	1.4395098493666667	-2.1326258668333335	-0.24146921133333332
O	0.9409025793666668	-1.9711846868333331	0.8886836026666667
O	1.7039533793666668	-3.3305583868333333	-0.8393408413333333
O	2.115101229366667	-3.3897168668333335	-2.1354951553333335
O	1.4020077693666668	-4.543315436833333	-0.08686125733333339
O	0.6397572273666667	-8.803582436833333	7.995776562666666
O	-2.012949410633333	-6.350402566833333	6.645751832666667
O	0.46935973736666686	-3.7844704468333337	5.390152992666667
O	0.15551360136666686	-0.2037925648333333	6.4656391226666665
O	3.312623079366667	1.786769193166667	6.062556562666667
O	4.838825989366667	-0.7254331578333333	3.708665412666667
O	7.711340789366667	-3.1237292968333334	4.165021352666667
O	7.486116109366667	-6.678609206833333	2.793222692666667
O	10.619263419366668	-8.677863246833333	3.523061882666667
O	8.480405809366667	7.154243973166667	3.1621164226666663
O	11.136111319366668	4.772839633166667	1.7253773526666665
O	8.921235249366667	1.815753763166667	1.1254193826666667
O	8.073011109366668	1.625752313166667	4.906643402666667
O	-6.250138130633333	3.7184327631666663	1.5501407926666668
O	-2.956250370633333	5.153310283166667	0.3104607726666666
O	-1.6973824506333333	7.159292393166667	-2.5683749673333334
O	-0.01728849963333315	9.494305113166668	-0.05987730733333341
O	-3.245906860633333	10.049713353166666	1.9086195626666669
O	-6.312828420633333	-1.3633534158333334	1.2679260326666668
O	-3.381819790633333	-3.7210183968333337	1.7801311026666666
O	-4.548457710633333	-6.851049766833333	-0.10434839733333323
O	-1.7298955106333331	-6.733900816833333	-2.5188162173333333
O	-1.7827376906333332	-2.9176027468333334	-3.141043837333333
O	-3.272885870633333	-2.7648841968333335	-6.5809294073333335
O	-3.616840850633333	1.0141589631666668	-6.888580167333333
O	-5.290029020633333	1.2809832431666668	-3.4462070773333333
O	-7.794621960633333	-1.3463459778333333	-4.520724677333334
O	-8.404887110633332	0.5758371071666666	-7.747905007333333
O	-4.167122820633333	2.7876712931666665	-14.559287087333333
O	-5.361520960633333	5.656974853166667	-12.350589087333333
