23

O	38.517729293570966	37.5977961259304	37.97340230734108
O	37.20199146481512	37.30901334193772	38.596334341347315
O	39.14855910785413	38.86748840028476	38.83462154844155
O	39.49123352213215	36.24897361105405	38.09598286575114
O	39.31271641373106	39.1034068018406	36.18923270801032
O	38.56565341441372	37.960646313709034	36.35311724313107
O	40.22648610889705	38.9330124322529	35.04371774591634
O	39.82120087112804	37.89849113401567	34.31950194981787
O	40.3617780619882	40.05902899745126	34.08320305430194
O	39.88352050510503	41.17417731958086	34.72747199712498
O	39.61337759162458	39.54763428354239	32.895706920775915
O	40.16159840896361	39.849632131222776	31.66575480086572
O	39.84782506349818	38.06676980632273	32.97998407782979
O	37.879767994616124	35.36412995156088	29.057016504929262
O	38.920914588683786	36.20187388633164	29.054023633923308
O	39.07612611629739	37.09209626834144	30.051825854807976
O	38.77455117893474	36.67209050642691	31.298868316127187
O	37.79431210627201	35.72655818068697	31.39306691235034
O	37.49212533224616	34.988625584905165	30.29778752840329
O	36.54727917987225	33.97840202584896	30.421241800947307
O	37.35566453361068	35.69573373868467	32.638594804287585
O	37.89275174423487	36.65499427886409	33.33995146662048
O	38.767994595471606	37.26939963685861	32.488964021465186
