17

O	41.608324819650846	39.108774362652724	28.8190050750776
O	42.79221018153436	38.57897418878183	29.297101704039058
O	40.784587624001645	39.43507378043378	30.026483654693344
O	39.62126188860895	38.66843567270704	29.960232740558283
O	41.46560612610912	39.11384401683005	31.320980576911207
O	41.72240792655834	40.19947059767382	32.12693490541023
O	40.57703989139499	38.06381871105281	31.903296421084022
O	39.83348074624889	37.513015487058304	30.681746677201687
O	38.63288889499666	36.82812890600841	31.074347049906304
O	38.03488752792533	35.82407109729253	30.391662818979654
O	38.37189678994351	35.72664623778208	29.196164470682294
O	37.0867765214988	35.012190625846756	30.924336377745234
O	36.709741458728345	35.12623728139484	32.19716523662391
O	35.69336654384603	34.551650253018465	32.63339197964488
O	37.40812539429202	36.03231028213749	32.939964523736016
O	37.14141866469118	36.24855542721618	34.35737102342061
O	38.24931655812132	36.92416686203291	32.34406745161245
