25

O	37.47581538667476	36.48936957160563	34.16196172988194
O	36.42557060525963	35.58777245406406	33.782981707077546
O	35.87551913890274	34.49411673936299	31.778140027622133
O	38.31055573484351	36.84141275850553	35.22502025603086
O	37.90846075894524	35.79853090857906	29.95812475963185
O	40.632142658676486	39.23010323554812	31.100254452769068
O	39.54159578227879	37.57305412692478	35.11692166383776
O	39.292828429755716	38.81902259313647	31.101752070896694
O	43.42646255391809	40.42562492105532	32.01930683605336
O	39.69442547287119	38.43499711015692	34.09532348895042
O	42.23308704281103	40.45522354098018	33.927325671750566
O	38.49130827731658	38.38175313421095	33.330851831720636
O	37.929325594358815	37.11086932171435	33.07369546857842
O	36.639942415075986	35.21974682951245	32.44025737803516
O	37.18187796620211	36.484124205719255	31.9938986377338
O	38.13655062356801	36.5284550855666	30.95361495151559
O	39.12112738898608	37.57722698953681	30.751783185434277
O	38.8391924897535	36.175508930378925	28.994465919644515
O	39.679503509468475	37.195474922610344	29.445005142319477
O	39.819620900288704	38.15168691304071	28.4461554107231
O	40.45371331761167	37.630400101877555	27.3142887554168
O	39.91710557805691	36.40286435747219	26.944880279066304
O	39.161228139811165	35.63277854844754	27.779777441556217
O	41.116424850740785	40.37706364689686	31.749502875477237
O	42.32850752857491	40.1812473132984	32.55889302008173
