67

O	2.7343155273076922	-4.568549979015384	-0.22851568521794874
O	3.0458365773076923	-7.980447699015384	4.328258280782052
O	3.0079053073076922	-6.731674819015384	3.5372388707820512
O	0.8606534773076926	-2.8172076390153844	1.3659279557820514
O	0.9194715073076927	-2.1221177690153845	0.28039226378205123
O	0.5378453443076925	-0.8198754320153846	0.43602814598205125
O	1.3501360073076927	-5.167962949015385	5.842927430782051
O	0.28174346930769256	-0.1359730370153846	1.6534025707820512
O	-0.10228911369230742	1.0539762309846155	1.7777200607820514
O	-0.4867937956923074	-0.2787279740153846	3.7512245307820513
O	-0.2642079018923074	1.0440117609846156	4.081248180782051
O	-0.47898666869230744	-0.9917535420153847	4.886551670782051
O	0.3402640043076926	-2.0282859290153845	4.697152850782051
O	1.1994466873076925	-1.9603268690153848	5.764323080782051
O	0.7827750033076926	-2.8540102790153843	3.647146440782051
O	0.4394463893076926	-2.2509958290153844	2.4804289907820514
O	-0.2015994505423074	-0.9931227370153846	2.567506940782051
O	3.2831636073076926	-5.681829639015384	4.474840370782052
O	2.0554324873076926	-4.905442669015384	4.697268640782051
O	1.3803427973076927	-4.144385879015385	3.696474590782051
O	1.0772859573076927	-5.238529779015384	2.7159085407820514
O	1.6889767073076927	-6.604996699015384	3.083985900782051
O	0.8490473273076926	-2.8370571590153846	-0.9717425092179487
O	1.2202653973076927	-4.142081609015385	-1.0718807592179487
O	1.0664249673076927	-4.735538749015385	-2.3249061992179487
O	0.6633972883076926	-4.002623979015385	-3.4399135392179487
O	0.013236268307692589	-2.8267278890153844	-3.1770216992179487
O	0.11715582530769258	-2.2586862090153845	-1.9442295092179487
O	-5.862412222692307	9.535918090984616	-0.7308671692179488
O	-7.739924982692307	6.467435630984616	6.717023820782051
O	-4.535568952692308	7.3162125309846155	4.7446104407820515
O	-4.438031502692308	3.9947714009846154	2.845827290782051
O	-4.217000062692308	3.9435417809846154	-0.8581150592179488
O	-5.418003302692307	0.8150205009846153	-2.628288009217949
O	-4.999387562692307	-1.1169256720153846	0.6428519477820512
O	-7.482238192692307	-2.7508896190153846	2.8834719707820513
O	-7.205644592692307	-2.250710569015385	6.607285250782051
O	-9.951009972692306	-4.072360549015385	8.441594920782052
O	-4.760907242692308	-6.2242625690153845	-6.506332159217949
O	-5.634132472692308	-8.587456209015384	-3.569978899217949
O	-4.547516562692308	-6.403144949015385	-0.7527750792179487
O	-7.075678782692307	-3.7506927490153843	-1.817480209217949
O	-9.949387662692306	-6.221697609015385	-1.6458167292179486
O	-12.413549852692306	-5.602579949015385	1.1851411407820511
O	-12.916695652692306	-8.819007129015384	3.144249290782051
O	-14.658303652692307	-7.985616569015384	6.4282623507820515
O	4.346974067307692	5.843742580984616	-3.4235515392179487
O	3.7117485273076922	2.1455279209846156	-4.278483259217949
O	5.677966087307692	-0.9356872640153846	-5.212224069217949
O	3.2897722473076922	-1.5267859370153847	-8.093168309217948
O	3.7563518473076924	2.0212880909846156	-9.419045529217948
O	7.484080707307692	1.2704394909846153	-9.579334349217948
O	11.867213947307693	1.9829737109846155	-7.758423079217949
O	3.3191905073076926	6.771665140984616	1.628358990782051
O	0.6687995623076926	4.928739630984616	3.894396680782051
O	2.1025492973076925	5.6825243509846155	7.340621630782051
O	2.2392741373076923	1.9135201009846154	7.869378040782051
O	3.7422845073076925	1.0086876209846154	4.4968913007820515
O	7.293344787307692	0.2952608389846154	5.392624410782052
O	8.602809217307692	-0.4358909194153846	1.8943777607820511
O	6.988826147307693	2.7402147809846156	0.5482480932820513
O	8.678961447307694	4.775691010984615	3.2692923207820512
O	11.996546847307693	3.1010715409846155	2.453109620782051
O	11.615447447307693	4.128194390984616	-1.2011595192179487
O	-1.6723706026923073	-3.5185446990153846	-12.145389949217948
O	15.036981547307693	-2.9124305490153843	-0.8207001392179488
O	13.058640947307694	-7.567757629015384	-1.986484219217949
