90

O	-0.5369352514928163	0.35391320923943737	0.21364528820985845
O	0.6682533505071837	0.5220578827394373	-0.34872022759014154
O	0.6744994605071837	-0.2572918937605626	-1.6723041377901415
O	0.5232892205071837	-1.3911449777605625	-0.9071926817901415
O	-0.5612640704928163	-0.1592103417605626	-2.5180641677901416
O	-0.052349931492816304	0.4287676902394374	-3.637506617790142
O	-1.6543824304928163	0.6933584982394374	-1.9765701977901415
O	-3.0696513394928164	0.37944894723943734	-2.355048747790142
O	-3.567394569492816	-0.6347853277605627	-1.5814191777901414
O	-1.6044269784928162	0.6892360452394374	-0.5276083617901415
O	-0.5151979534928164	-0.15805489776056258	1.5158082622098585
O	-0.1958363394928163	0.9452811972394374	2.4620896322098584
O	1.2780903105071837	0.8360483112394373	2.3101534622098585
O	1.7224371305071835	-0.24157446876056266	3.2033908622098584
O	3.0844310805071835	-0.3244889907605626	3.177000072209858
O	3.878059740507184	-0.7185263477605627	4.230561252209858
O	3.242351990507184	-1.1924969277605628	5.278439492209858
O	1.8885844305071835	-1.3252420577605628	5.248259192209859
O	1.1009776205071837	-0.8240633877605626	4.251286522209858
O	-6.008784309492817	12.106054662239437	-0.23157115619014154
O	-3.645585779492816	11.029680162239437	3.4096573522098583
O	-0.12926725649281634	9.563170572239438	3.3002000622098584
O	0.04385888850718367	8.209733622239437	-0.19994708939014155
O	-1.4005665214928165	5.243656732239438	-2.0741076377901417
O	-4.0936048594928165	4.086985952239437	0.36147750620985847
O	-5.499051229492816	7.637221312239437	0.7859491222098585
O	-5.284206899492816	8.436377952239438	-2.9326657977901416
O	-7.093625049492816	5.165131042239437	-3.7587438177901418
O	-10.027577549492817	6.222089832239438	-1.5606880877901415
O	-10.137974739492817	9.535271022239437	-3.4635925277901416
O	-10.091302479492816	7.891766422239438	-6.919501337790142
O	2.2291179705071835	10.468791682239438	8.885332722209858
O	3.0276542205071837	6.778587312239438	8.599567552209859
O	2.8166642005071836	4.906123682239437	5.236577972209858
O	2.4042135705071837	1.6014354522394374	5.796580852209858
O	3.689069510507184	1.2309691452394373	9.22320805220986
O	1.8079431505071835	0.4777547182394374	12.410037562209858
O	2.3655366505071838	2.6662091522394373	15.473521762209858
O	-13.189585899492815	-1.3063507777605627	5.233692842209858
O	-10.208606489492816	0.37335488023943736	3.6132077122098583
O	-7.497454849492816	-1.6849593877605624	5.343193872209858
O	-7.872663069492816	-2.6783441477605625	9.029988432209858
O	-7.923120779492816	0.9191943242394374	10.315323962209858
O	-11.881530899492816	-2.6633692677605625	11.749302862209857
O	-9.622448709492817	-4.707861817760563	1.6518781522098585
O	-6.0800621094928164	-5.737960927760563	2.4518259422098585
O	-3.2729048794928164	-3.3195445477605627	1.3239398022098585
O	-0.0006236034928163159	-4.947739047760563	2.195528042209858
O	1.7283213605071839	-8.097249237760563	3.5026528622098585
O	4.690885250507184	-6.5762642377605625	5.299870092209859
O	4.527606050507184	-7.403237197760562	9.056752682209858
O	5.357286520507183	-3.931437687760562	10.423013262209858
O	2.1509857205071836	-2.6004944277605624	8.838042692209859
O	-0.00030080949281630076	-5.152081117760562	10.493454862209859
O	-6.201657049492816	-8.133358817760563	-2.338300567790142
O	-5.3515871694928165	-5.139090117760563	-4.546466137790142
O	-3.576485819492816	-6.788764937760562	-7.496289867790142
O	-3.6025412694928165	-10.358157537760562	-8.835800427790142
O	-0.8987401612028163	-9.758563637760563	-4.078377767790141
O	-4.251450639492816	-11.552037837760562	-3.828439007790142
O	-2.5634293294928163	-14.857702237760563	-4.659789247790142
O	0.1526485705071836	-14.281378837760563	-2.0892600477901415
O	-2.573591529492816	-13.707173537760562	0.5295288092098585
O	-6.540702009492817	-1.1279510577605625	-8.119775547790141
O	-7.082484029492816	1.6466761922394375	-10.598272037790142
O	-6.836972949492816	5.4162275422394375	-10.946676837790141
O	6.431719820507183	7.873581582239438	-3.999387607790142
O	6.906781020507184	7.6670168622394375	-0.23722237269014154
O	10.518841400507183	6.954352462239437	0.7834672722098586
O	10.700447800507183	3.2636888722394373	1.8634628522098586
O	11.055138800507184	-1.7644780277605627	0.2518834442098585
O	10.486285900507184	0.7393680082394374	-2.6104616277901416
O	14.237707500507184	0.7300114602394374	-3.151360287790142
O	8.796798580507184	11.538578162239437	-1.6677384677901415
O	8.246237530507184	12.083723362239438	2.0434659722098583
O	7.694903120507183	9.225953272239437	7.967403622209858
O	8.613653740507184	0.9642245122394374	-10.151183687790141
O	10.200219700507184	-2.5781476277605626	-5.348129277790142
O	6.347416500507184	-9.527415337760562	-3.5412046977901417
O	6.509669250507184	-6.356277207760563	-1.4210439777901416
O	4.402423660507184	-3.724224367760563	-3.2995125577901416
O	0.8257000505071836	-5.070100337760563	-3.090521137790142
O	-0.2548853374928164	-3.1144479777605625	-6.1818548577901415
O	0.9996007505071836	0.43121832023943735	-6.576491167790142
O	-0.9948150507928163	3.1328155622394376	-8.353212497790143
O	1.6613817605071834	5.662510532239438	-9.280303657790142
O	2.7139314005071835	3.0371674722394375	-11.831572637790142
O	2.0690777305071837	-5.766622767760563	-7.714768937790142
O	0.13383636050718373	-4.355705727760562	-10.647578237790142
O	15.146627100507185	-6.148182047760563	0.3388220772098584
