59

O	4.3914930258	-3.021685103685714	-0.4541640826857144
O	5.3732591358	-2.797370583685714	-1.3814523156857144
O	5.6506095858	-3.917205453685714	-2.206157605685714
O	5.4934212358	-5.1754881736857135	-1.6251397516857145
O	5.3277661658	-5.214128573685714	-0.24239816668571434
O	4.5128155358	-4.2060802336857135	0.27041260631428565
O	3.9937893358	-1.7141682636857138	-0.08518697968571431
O	5.0618834958	-1.4571491036857138	-1.9457797456857144
O	4.0623303558	-0.8806958836857139	-1.1070905146857144
O	5.7212422058	-0.7506552736857137	-2.7363277956857144
O	3.2888845558	0.2625689093142862	-1.2362636366857145
O	2.3338483958	0.31239717031428615	-0.07118949168571431
O	2.5757107358	-0.3326791436857137	0.9775061343142856
O	1.1207059028	0.5004701913142862	-0.6537464434857143
O	2.6707794058000003	0.6955146493142862	-2.4669011756857144
O	1.4014715748	0.8207792333142863	-1.9938880156857142
O	0.6069705378000001	1.6628678593142863	-2.7904014856857144
O	0.8644614828	2.0261562333142864	-4.100332045685715
O	2.2262995058	2.140390416314286	-4.373644075685714
O	2.9654789458	1.0869723949142862	-3.7968718356857143
O	2.3795238958000002	2.618274776314286	-6.133251695685715
O	1.2431300228	2.825460806314286	-6.883097645685715
O	3.4670674658	3.806936506314286	-6.020779925685715
O	1.2097559778	4.670258316314286	-5.183540145685715
O	-7.5577914241999995	3.2794641863142866	5.407521104314285
O	-9.9289918342	7.343102986314286	-1.6244115626857143
O	-6.8781567542	5.387317936314286	-2.6715806256857144
O	-4.7174915842	5.573451186314286	0.5414405043142857
O	-3.3402354942	2.010389103314286	0.28372832431428563
O	-3.7575946742	-0.3540074236857138	3.2069189143142856
O	-3.3360531742	-4.022487333685714	2.2466274843142857
O	-1.8279964841999998	-3.197691733685714	-1.1159451256857142
O	-3.1306718842	-3.5776702436857137	-4.667260285685715
O	-2.5521474342	-0.8542680536857139	-7.2581837956857145
O	-3.9970435041999997	-1.7228080336857137	-10.658934355685714
O	-4.9167110742	1.8036913613142862	-11.775632315685714
O	-9.5175303342	2.387380606314286	-9.009667075685714
O	-0.2883472642	-11.349321433685713	1.604583254314286
O	0.22042819479999998	-11.521589933685714	-2.1969067756857146
O	0.6902801588	-7.804314833685714	-2.8353498956857144
O	-2.8139489142	-7.172119893685714	-1.5194164476857144
O	-4.2957568942	-9.611545833685714	-4.014605215685714
O	-5.1760867242	-9.284607733685714	-10.160161485685714
O	-6.6608598242	-7.048524753685713	-12.863555615685714
O	-0.8969393442	1.6064133853142861	9.668082884314286
O	2.8762857358	1.5372397273142862	9.086615214314286
O	3.8650426758	-1.7253627636857136	7.219708124314285
O	6.8574403558	-3.9293058336857136	7.006427134314285
O	2.1434598158	5.250198216314287	5.556753794314285
O	0.7328883808	4.966674386314287	2.0632078543142858
O	2.2145114858	7.977165296314286	0.19523835231428566
O	4.1993919758	5.752405036314286	-2.252845755685714
O	5.5598216558	3.476053786314286	0.34074259431428555
O	9.1463439358	4.404514096314286	0.6822831843142857
O	10.1251791958	1.8410351933142861	3.344675684314286
O	7.0799354558	2.7799610563142862	5.459227484314285
O	7.9862427158000004	6.443703376314287	5.236042904314285
O	11.5781916658	5.581724106314287	6.183777544314285
O	10.3149112158	3.7737408063142865	9.290853994314286
