70

O	1.3452790816909093	7.692676898478181	-5.332058795872728
O	2.1402401116909093	5.709671888478181	-7.515080645872727
O	3.367116991690909	5.6152448584781816	-6.684449355872728
O	3.0459978216909094	4.598336788478181	-5.762328925872727
O	1.965171271690909	3.856705078478181	-6.072303665872727
O	0.7225011466909091	4.628415088478182	-5.992079075872727
O	0.2926135146909091	4.447193368478181	-4.746844605872727
O	-0.5679794343090909	5.390880978478181	-4.343887585872727
O	-0.4769381883090909	5.565582138478181	-2.8843514958727274
O	-0.1444062063090909	4.425001078478181	-2.2569826858727273
O	0.8564077716909092	3.660001868478181	-2.8034662258727274
O	2.101349501690909	4.454246628478181	-2.792979505872727
O	1.7427046616909094	5.766428128478181	-2.5892290658727273
O	2.508362241690909	6.450858958478181	-3.5628003458727275
O	1.696990341690909	7.504068508478181	-4.060754155872727
O	0.23438753969090909	1.9863462931781812	10.050895884127273
O	3.2043785316909092	4.336743138478181	9.904716284127273
O	1.922275301690909	6.985419028478181	12.299667784127273
O	-1.836979598309091	6.897711178478181	11.660459084127273
O	-3.364431578309091	4.759233278478181	8.907621324127273
O	-0.9768715243090909	5.455676488478181	6.044052404127273
O	-0.6489963833090909	9.208749278478182	6.583573404127272
O	-4.42870336830909	9.419540618478182	6.800117034127273
O	-4.827625528309091	7.499691138478181	3.5595727641272727
O	-2.2753941483090907	9.756986428478182	1.8913289541272729
O	-6.22633377830909	10.226259878478182	-1.708631535872727
O	-3.9034425583090906	11.17206932847818	-4.559720935872727
O	-1.2398573283090908	8.67300821847818	-4.929454555872727
O	-2.7603065783090908	6.976658878478181	-8.069488315872727
O	-5.967900278309091	6.438173888478181	-6.381114655872727
O	-4.298354798309091	5.044236758478181	-3.3130614758727273
O	-2.2388358783090907	2.6806192814781813	-5.564409565872728
O	-5.20971047830909	1.3723684244781813	-7.293115965872727
O	-6.747399188309091	0.8928271704781813	-3.8604535758727274
O	-3.6270823283090907	-0.8247289715218187	-2.5511946658727274
O	-3.608680878309091	-3.2646837915218194	-5.431056885872727
O	-7.305981528309091	-3.922477851521819	-4.895222835872727
O	-6.945007898309091	-4.507147211521819	-1.166449529872727
O	-3.9287635483090906	-6.711106251521819	-1.649953680872727
O	-5.612388678309091	-8.79428798152182	-4.360458725872727
O	-8.419168708309092	-9.55853628152182	-1.9311010058727271
O	-6.010794488309091	-10.446852581521819	0.8820449041272728
O	-7.3151495483090905	-7.57817267152182	3.0127707841272726
O	-4.097650718309091	-7.304790801521818	4.959221054127273
O	-2.950019888309091	-6.75040133152182	8.445551754127273
O	8.24636244169091	-6.489056131521819	-3.9063541958727273
O	9.863135451690908	-4.592678721521819	-6.720251435872727
O	5.694691311690909	-1.6172708915218188	-10.718521075872728
O	3.3595154216909093	-2.101885071521819	-7.744192215872728
O	1.547047391690909	-5.130289401521819	-9.297026435872727
O	1.9977944816909092	-4.241361051521819	-12.955299115872727
O	-2.200523648309091	-9.19792138152182	-6.551107405872727
O	-1.777336258309091	-11.101009581521819	-1.6465416038727272
O	1.8216914816909093	-9.96737848152182	-1.9445444358727273
O	2.186902671690909	-9.72605178152182	3.0036270441272728
O	5.423944791690909	-11.613180981521818	3.6831125741272723
O	3.5308657816909093	13.070632218478181	-6.860310735872727
O	4.363045221690909	12.603927318478181	-3.165434125872727
O	8.427803731690908	-0.452687141521819	-3.1233333858727272
O	8.334640771690909	3.190966238478181	-1.8779363658727273
O	8.729828031690909	2.0538129834781813	1.7858843141272724
O	5.383692791690909	0.22502928847818127	1.3354594741272727
O	3.768114801690909	3.4356882784781813	0.38907850412727274
O	4.780943801690909	5.348318008478182	3.4534249141272726
O	4.697806621690909	2.630790761478181	6.028093914127273
O	2.2518588316909094	0.12110867847818119	4.531925834127272
O	2.217290561690909	-3.7044088115218186	4.7862640541272725
O	3.8482674716909093	-3.9975696115218193	8.207047364127273
O	7.101380891690909	-2.710705751521819	6.734684604127272
O	7.81202498169091	-6.1559519515218195	5.235544434127273
