68

O	1.056389561354166	-1.0719949725416664	-2.4971622117770833
O	2.5938313113541662	-0.5630288485416663	-2.5396439517770832
O	1.009019281354166	-2.4817261525416665	-2.654033041777083
O	1.6444120413541663	-3.475050702541666	-2.4432268717770835
O	2.668359741354166	0.47948025435833364	-3.1280602517770832
O	3.566942951354166	-1.4999089325416664	-2.6183700817770834
O	4.8005648313541665	-1.1425996325416663	-2.0779949917770835
O	0.11306704835416603	-0.2623367765416663	-2.6312209117770835
O	-0.880705336645834	-0.5345348925416663	-1.6790002717770833
O	-2.134943778645834	0.07996841345833366	-2.0101255617770835
O	-1.907970868645834	1.4006859944583336	-2.6826132017770834
O	-0.428534605645834	0.8937294054583336	-3.6972381417770834
O	-0.23181332264583399	-0.9699360125416663	-0.4616379284770834
O	-0.25729896864583396	-2.294959112541666	-0.16011149877708342
O	0.890425581354166	-2.8372150225416664	0.4628443812229166
O	2.0950528413541663	-2.2425903625416663	0.5578486382229166
O	2.024005541354166	-0.8818777225416663	0.5388603782229167
O	0.8837589813541661	-0.30130594854166637	0.0695384112229166
O	-3.206225848645834	-0.1449106225416663	-1.4299308507770834
O	1.062372011354166	0.8769939034583336	-0.6251663837770834
O	11.285215671354166	1.1861794064583338	-3.8033823817770833
O	8.994559541354166	5.147060057458333	-0.5665207254770834
O	7.277958331354166	6.2309689974583335	5.153972078222917
O	8.437769621354166	4.353319027458333	8.248796238222916
O	8.958497691354165	1.0436690124583337	6.457552138222916
O	5.472956971354166	1.1450078854583337	5.000477098222917
O	3.7350199313541665	2.3590915974583337	8.119815408222916
O	5.546748051354166	0.20102957545833364	10.642263688222915
O	6.243670021354166	-2.974907262541666	8.651807908222917
O	4.850454441354166	-3.5044163825416663	5.201328368222916
O	1.2769926313541662	-2.3084209325416665	5.764620908222916
O	0.6278950013541661	-4.010585102541667	9.024892598222916
O	2.081584111354166	-7.217536952541666	7.580979838222917
O	-0.199729351645834	-7.050524572541667	4.596171948222916
O	-3.2187907386458336	-6.391979432541666	6.776674088222917
O	-2.305238558645834	-9.425872972541667	8.806022048222918
O	-2.151851768645834	-11.666019812541666	5.7567592682229165
O	-5.146923798645834	-10.462149812541666	3.7782655182229163
O	-9.292860608645835	-5.942560212541666	3.3286419782229166
O	-5.729484838645834	-6.2464411225416665	-0.16355767277708338
O	-7.782853098645834	-3.6325061425416663	-1.9939774917770834
O	-7.978909658645834	-5.724669722541666	-5.1100874317770835
O	-4.292475618645834	-6.477536392541666	-4.987742151777083
O	-3.615295968645834	-2.9281945325416663	-4.580532721777083
O	-5.5585336686458335	-1.8003165025416665	-7.595946711777083
O	-3.6231877186458337	-4.369245132541666	-9.593165001777084
O	-0.20169441164583396	-3.1399814025416664	-8.534208431777085
O	-1.144135991645834	0.5284486434583336	-9.014306591777082
O	-2.410032618645834	-0.15173018054166632	-12.399218211777082
O	1.0229630913541659	-1.5239503725416663	-13.322583711777085
O	2.8961013713541663	1.4161056214583336	-11.751365111777083
O	4.564945351354166	-0.8191563025416664	-9.247820351777083
O	5.124074411354166	1.9226500474583337	-6.667580941777083
O	7.651175221354166	3.0648184674583336	-4.122818261777083
O	-14.035172828645834	4.092084357458333	-4.024202111777083
O	-10.397171478645834	3.0467407474583337	-4.380664051777083
O	-10.347385228645834	2.882749027458334	-8.161510721777084
O	1.7756714013541663	8.007345847458334	-6.476371231777083
O	-3.628034708645834	5.011695957458334	2.2061106482229165
O	-4.916354808645834	1.6968872874583336	3.615529598222917
O	-2.983060778645834	2.0451165274583336	6.844545798222916
O	0.13663982535416608	4.017865357458334	5.950916408222916
O	0.4677711913541661	3.2795716974583335	2.3046757182229167
O	1.7185008913541662	5.307214727458334	-0.8277680017770834
O	4.3348249213541665	7.142275757458334	1.0582930282229166
O	1.451018361354166	8.902298047458334	2.868296328222917
O	0.7953995613541661	11.043601187458334	-0.24711779177708343
O	4.230770631354166	12.694906387458333	-0.16496083177708343
