69

O	2.627756691729787	-1.5243423709148936	-3.0440207685085108
O	3.458668701729787	-2.0021224909148936	-4.238867788508511
O	4.255971411729788	-1.4924188109148937	-5.096916028508511
O	3.640806581729787	-0.16730004491489353	-3.234583308508511
O	4.755672541729788	-0.39007855291489363	-2.7487488485085105
O	3.713655501729787	0.4257979257851064	-4.450584598508511
O	4.545439921729788	1.4161185570851065	-4.927313218508511
O	2.949239571729787	-2.0359846609148935	-1.745694640508511
O	1.6157148817297873	-1.3956993609148935	-1.348273543508511
O	0.620451551729787	-2.3581516309148935	-1.4589896145085108
O	0.844660811729787	-2.826169260914894	-2.9371697285085108
O	2.223070441729787	-3.6628299209148936	-1.9915891385085107
O	0.14083639072978713	-2.7828768409148936	-0.3996129835085108
O	1.6233211417297873	-0.019995456914893572	-1.0592174885085108
O	1.4799224417297872	0.7906730110851063	-2.130843088508511
O	2.346926261729787	1.8636066290851063	-2.312044538508511
O	3.274265901729787	2.2799602190851065	-1.4358549205085107
O	3.424664901729787	1.3280974290851064	-0.4252352175085108
O	2.749944941729787	0.15645338908510642	-0.3184622605085108
O	4.4434175217297875	2.7946136290851062	-2.072056028508511
O	4.134699071729788	3.9657094490851064	-2.8261963085085107
O	3.014432701729787	-0.8428621709148936	0.5790134214914893
O	10.187026041729787	4.745324759085107	-4.442970618508511
O	7.461205611729787	7.189186919085107	-0.30604596850851085
O	2.529154881729787	10.499084479085107	1.1243205014914892
O	0.3852958307297871	12.597064179085107	-1.1910474275085108
O	0.9354760217297872	10.434912729085108	-4.255143598508511
O	-0.10483975027021286	7.340116479085107	-2.3835148185085107
O	-3.039521658270213	8.836774349085108	-0.5474618655085108
O	-4.4704494382702125	10.860285279085106	-3.386538818508511
O	-3.718799408270213	8.753262239085107	-6.4294741185085105
O	-2.248829928270213	5.349973339085107	-6.096138758508511
O	-4.304994278270213	3.8215638690851064	-3.2821078985085106
O	-7.674525108270212	5.067519219085106	-4.470537428508511
O	-6.860545368270213	3.7171338190851064	-7.917629888508511
O	-5.967433218270212	0.2926021210851064	-6.489135168508511
O	-9.176146138270212	0.2249878540851064	-4.477306458508511
O	-9.437005158270212	-1.9635286209148934	-9.487883328508511
O	-9.561369138270212	-4.656740570914893	-6.811602988508511
O	-10.307917058270213	-5.663841700914893	-0.8378150796085108
O	-5.608805478270212	-6.059495850914893	-2.7450617885085107
O	-4.806616178270213	-7.460722190914893	0.7150390014914891
O	-3.313893848270213	-10.594759220914893	-0.7275190265085107
O	-1.2874183982702128	-8.659454590914892	-3.150841238508511
O	-0.11789731957021286	-6.462253640914893	-0.2932639985085108
O	1.1667041617297873	-9.217337780914892	1.7281618614914893
O	3.030093341729787	-10.709581120914892	-1.1675102275085107
O	4.897951901729788	-7.527705870914893	-1.8647013885085109
O	5.644806691729787	-6.6944073609148935	1.7725968614914893
O	7.0550453117297875	-10.071737920914893	2.098447981491489
O	9.561425441729787	-9.364765460914894	-0.6364005405085108
O	10.440033641729787	-5.894026440914893	0.7553590914914892
O	9.247016941729788	-4.167657330914893	-2.1947746485085107
O	8.397271771729788	-0.8015350509148937	-0.6068252965085108
O	8.720198471729788	3.0093607690851063	-1.0476509945085108
O	-4.843369148270212	-9.265276010914894	10.598724711491489
O	-2.627502838270213	-7.773782670914894	7.870381411491488
O	0.021220621729787142	-10.433508020914893	8.074875221491489
O	8.041715711729788	-0.1690197029148936	6.1982653414914886
O	-2.267904198270213	1.2079935580851064	5.44264540149149
O	-5.130311968270212	0.1637792580851064	3.261717781491489
O	-6.263983828270213	3.6914915890851066	2.579762841491489
O	-3.057301018270213	5.686030099085107	2.673632171491489
O	-0.4162052752702129	2.9380703190851065	1.842794971491489
O	3.063603881729787	2.5137642590851064	3.496389571491489
O	3.949818131729787	6.239142129085107	3.600885161491489
O	1.4172714117297873	6.298784999085107	6.33577389149149
O	3.972387011729787	4.639038609085107	8.62878881149149
O	6.488862311729787	7.493889909085107	8.44834079149149
