67

O	-0.661500275787499	0.48667811291666674	-3.239733761758333
O	-1.8002802471874992	0.8661893769166666	-2.9947950317583336
O	-0.14193215318749908	-0.5672380000833332	-2.4928436317583333
O	-0.3563232521874991	0.00621223991666664	-1.167057991758333
O	-1.560126221187499	0.48875257191666666	-0.6805975517583331
O	-1.827454287187499	1.6815866089166667	-0.10966035575833316
O	-0.9677600031874991	2.733175419916667	-0.17023119575833318
O	0.1958264598125009	2.487295029916667	-0.8233346927583332
O	0.489028332812501	1.1459475269166668	-1.0588381187583331
O	0.9125978728125009	3.629544719916667	-1.1294196397583331
O	0.8075479028125009	4.755415829916667	-0.36934966915833317
O	0.2256881398125009	4.559372529916667	0.8856426882416668
O	-0.9066672801874991	3.747314429916667	0.7992193082416668
O	-0.010073623187499048	1.6831609759166666	-3.884470911758333
O	1.713307692812501	1.6333903959166667	-3.761267161758333
O	1.934955132812501	2.3787657349166667	-5.289946681758334
O	1.2254635228125008	1.3815706197166666	-5.816801101758333
O	0.04753312581250091	1.1280406479166667	-5.129674951758333
O	-0.3584698521874991	-0.2224951900833334	-5.723722611758333
O	5.2869720828125	-5.661234850083334	-7.892838911758333
O	5.970732222812501	-6.389578680083334	-2.5070086417583335
O	9.3573640528125	-5.365072570083334	-1.2194621557583332
O	8.947101032812501	-4.417539750083334	2.3830834982416667
O	12.0619153728125	-2.2477430600833337	2.4545231982416666
O	11.2400685728125	-0.3722855000833334	-0.7343551857583333
O	7.750320822812501	0.49674119691666674	0.4805124922416668
O	8.7897444928125	1.3442996119166666	4.008661918241667
O	11.953998072812501	3.2806639499166668	3.277552028241667
O	11.1138308728125	4.9429873899166665	-0.020045938758333215
O	7.671030372812501	4.7373655499166665	-1.4968094517583332
O	5.483049732812501	5.410368579916667	1.5604528182416668
O	7.4750432828125	8.271130529916666	2.9197869682416666
O	7.517384402812501	9.830924149916667	-0.5457064063583332
O	3.751507482812501	9.506952439916667	-0.8650915847583331
O	3.239327402812501	11.007746959916666	2.5730799182416666
O	-0.14062792818749908	14.174073309916666	-0.20426383375833318
O	-3.433356187187499	9.445320429916666	-0.017801542758333178
O	-6.1630798371874995	7.443700259916667	1.681821868241667
O	-5.9259416971875	7.0969885499166665	-3.616835031758333
O	-5.202488777187499	3.9786370499166663	-1.6468694317583332
O	-8.933557907187499	2.9517674699166667	-1.7190160317583332
O	-8.9159653471875	3.4770351699166664	-5.460860011758333
O	-5.8929741071874995	1.3938708309166667	-6.1245707017583335
O	-6.9100695971874995	-1.3609156800833333	-3.7759883817583333
O	-10.3234710271875	-1.5427875200833332	-5.362877691758333
O	-8.6907345471875	-2.1909511300833335	-8.725517081758333
O	-6.363374567187499	-4.879570670083334	-7.294686341758333
O	-3.368245337187499	-2.9581356400833334	-8.117176301758333
O	-1.085164935187499	-4.390728340083333	-5.4065422017583336
O	2.486414812812501	-5.498688400083333	-4.928472781758334
O	-7.945595187187499	-4.768969570083334	7.927872268241667
O	-9.9021534071875	2.222621655916667	5.615370258241667
O	-12.6812400271875	0.9562513209166666	3.3864997682416664
O	-12.2362720271875	-2.3205326800833337	-1.8492652617583332
O	-8.5675727471875	-5.933812880083334	-3.0590540517583333
O	-7.903343287187499	-6.0084835600833335	0.5951836782416668
O	-3.358182057187499	-7.774689560083333	-0.004511425758333187
O	-3.251357997187499	-10.833129790083333	2.171971118241667
O	-0.5883777651874991	0.12983145991666678	6.438867138241666
O	-0.3759861851874991	3.918455649916667	6.174500738241667
O	4.6567793528125	0.7202376869166667	5.664792038241667
O	2.179448602812501	-0.03760410008333337	2.9375915382416666
O	0.7831202928125008	-3.4567677700833332	1.6728121282416668
O	3.8797321928125013	-5.375655560083334	2.227260168241667
O	3.229107692812501	-4.953819500083333	5.9496721682416664
O	0.4949074328125008	-7.607087750083334	5.782569978241667
O	2.840231832812501	-10.392186690083333	4.711188688241666
