15

O	47.20743803665662	37.569879167922224	-4.369415231091611
O	47.188007032259485	36.553763962909876	-1.4889658507531847
O	46.11075972754039	37.56772954396992	-1.3644518856679628
O	46.81888306845137	38.74091803700962	-1.0332182438797113
O	48.09462567839951	38.55569151398428	-0.6427571161971465
O	48.946228931287955	38.085188693002785	-1.7380198057199232
O	49.440439185053634	39.19375586861585	-2.281240401287352
O	49.880519240053076	39.01600061997599	-3.533547674234364
O	49.761891717068714	40.27267464259744	-4.292331249076422
O	49.90784322883423	41.35397630912392	-3.5083802560769897
O	49.26642370489446	41.35796537116094	-2.2942708083562824
O	47.81231259749508	41.284401686922195	-2.541179481509307
O	47.642999863733216	40.87519562186507	-3.8434253286931703
O	46.65142901995964	39.872455775566	-3.725874528912521
O	46.98383797523754	38.85198961711391	-4.655221514230384
