28

O	53.682665953596334	49.66158846217047	2.3573678488548238
O	53.526710789401065	48.33163665301324	2.1892142450318377
O	52.9487481394215	47.9714001423576	1.0300023770315598
O	52.614079630894125	48.803348369389404	0.06922366978771749
O	52.26551390326324	48.28106499304416	-1.123551641103929
O	51.92204628772983	47.09141776975378	-1.2391720221723068
O	51.493505088459266	46.59109551456389	-0.06854885476909128
O	52.05721760084389	47.01856895660829	1.0696790934978793
O	52.5039115729647	46.24671250042061	-2.1863014946753547
O	53.02232671642975	45.119609804045844	-1.4961736806364445
O	54.27655003650496	45.63507076746397	-0.98962945239726
O	54.797667690033514	46.22735561228968	-2.001889874605055
O	54.284464791320445	45.83066467261845	-3.270906265103325
O	53.137436273679114	46.69141803226117	-3.233636923274579
O	56.03881946087839	46.80700432603428	-2.0161182425152355
O	57.00423896122438	46.92463375640703	-2.979016640151971
O	57.36714505427122	48.39615245436865	-3.3225775885378805
O	55.78921636522126	48.397477568033146	-4.154159498863974
O	55.3526248886195	47.91129328704794	-2.433412129273339
O	56.85346602610347	46.09071271912997	-3.937453771741302
O	54.913353754102445	48.40675626905407	-1.4415195629161723
O	54.68142135262353	49.989540025228834	-1.9854136610779713
O	55.49994820120636	48.701249997594516	-0.23101092388544658
O	55.6753079633488	49.85151538438773	0.1431341535834964
O	55.87643903352939	50.4236603171946	-2.4104527324948566
O	53.94607823004948	49.53111642807834	-2.839752192561837
O	55.886681643022555	51.28986583299397	-3.5747898381910392
O	54.83410440564573	45.88967906126472	0.2062746980071803
