84

O	2.6818626332321425	-2.4030723574339286	-1.5267604455321437
O	2.7548482332321425	-1.3418559174339286	-0.6961809899321437
O	1.5770087832321424	-0.7530043074339285	-0.42501437193214375
O	0.4269539132321428	-1.0956898674339284	-0.9609033439321437
O	-0.6235181786678573	-0.2707314474339284	-0.7794014889321437
O	-0.6356650535678573	0.5796290875660715	0.12797825806785634
O	0.21733374723214272	0.25428741656607146	1.1133078280678563
O	1.3556382432321428	-0.3834588174339286	0.8073489780678562
O	-0.9282865227678573	1.9210607865660716	-0.12516619193214362
O	0.1590833702321427	2.696454712566071	0.3562713680678562
O	1.1161682232321426	2.5636347925660714	-0.7215554499321437
O	0.4217500832321427	2.780427072566072	-1.7788258329321436
O	-0.8049561827678573	3.4753453625660713	-1.5704419962321436
O	-1.5606496057678574	2.315849302566072	-1.1930084159321437
O	0.9282335332321426	2.8343329025660715	-3.0505260619321435
O	0.6102741932321428	3.5816479425660717	-4.152100801932144
O	0.19161570723214272	2.7312819625660714	-5.383646581932144
O	-1.3158963287678573	2.4777136325660716	-4.464679911932144
O	-0.0163195147678572	1.8818024585660715	-3.3053918719321436
O	-0.0753018357678572	4.622809782566072	-3.8644794519321435
O	0.46434574323214284	0.8520556665660715	-2.9436239719321438
O	-0.4536422847678573	-0.23372052743392846	-3.856425091932144
O	1.7034770932321428	0.2945291525660715	-3.1669364219321436
O	1.8501126232321425	-0.7134049674339284	-3.8425197819321437
O	-0.27805824276785723	0.10726122656607151	-5.1409824419321435
O	-1.4402208977678572	0.22657945356607145	-3.3127684019321437
O	-1.4241183617678572	-0.02773074743392856	-6.020994471932143
O	2.336921663232143	2.0325088515660714	-0.9047091239321438
O	0.2686829602321428	-3.828451927433928	-11.599084671932145
O	-1.9128352367678572	-7.055539387433928	-7.5754236519321445
O	-7.110999606767858	-7.790606057433928	-4.355602791932144
O	-10.608394986767857	-6.641421527433929	-5.278597301932144
O	-9.438963166767856	-3.6389502574339287	-7.266224611932143
O	-7.288912636767857	-2.3378171074339287	-4.429002751932144
O	-9.817888826767856	-3.0505532274339284	-1.7154210809321437
O	-12.974433566767857	-1.9056403774339286	-3.4490016919321436
O	-11.653894366767856	0.9360729615660714	-5.571804941932143
O	-8.084560866767857	2.1201032025660718	-5.244055221932143
O	-7.559246726767857	2.3902079325660717	-1.6034462279321438
O	-10.969485266767856	3.9006704625660715	-0.7506533399321437
O	-7.090942166767857	7.343388022566072	-1.9659632929321438
O	-8.408950276767857	7.653291722566071	1.4603431480678561
O	-5.711656386767857	12.357548952566072	1.0567509380678564
O	-5.467905586767857	12.781488652566072	4.803956078067856
O	-3.9173126267678575	9.685672882566072	6.3200176180678564
O	-0.22035990476785727	12.301738552566071	3.523211728067856
O	-1.2221359087678572	8.870701062566072	2.118056618067856
O	1.239197943232143	7.2082311325660715	4.515880108067856
O	4.034372913232143	9.448597872566072	3.382235698067856
O	3.1586990632321426	8.727804492566072	-0.1737640219321437
O	3.0910050132321425	5.072317862566072	0.6177339680678564
O	6.622674373232143	5.172110282566072	1.9923283780678562
O	7.844037333232143	7.022472222566072	-1.0454087149321438
O	6.227292373232142	4.550718962566071	-3.4571863319321436
O	7.4424158032321435	1.6523577035660715	-1.6356277589321437
O	10.920138033232144	2.8625169225660714	-1.4164308317321437
O	10.983633333232143	3.086300332566071	-5.2215090119321435
O	9.490111433232144	-0.3800313174339285	-5.695031631932144
O	6.396547553232143	0.9346117215660714	-7.3293410319321435
O	4.097677723232143	-1.8906065374339285	-6.338291801932144
O	1.5487006532321428	-4.3187367374339285	-7.737686161932144
O	5.212344813232143	-5.3581381374339285	8.270641548067855
O	4.768478833232143	-3.987147797433929	11.797442628067856
O	5.451259853232143	2.430554372566071	12.461606828067856
O	5.0715126332321425	2.1851118525660715	8.756151728067856
O	8.718368793232143	2.5421666825660716	7.783034858067856
O	11.500754933232143	1.3840532155660714	2.3422580780678564
O	10.254565433232143	-2.3433431174339283	-1.1971875219321437
O	8.512276203232144	-3.9736015574339287	1.711847258067856
O	9.109099323232144	-6.813997097433928	-2.6349217919321437
O	5.558065273232143	-6.563738917433929	-1.3130944019321438
O	5.885918403232143	-10.138125447433929	-0.019855811932143697
O	-0.04448546176785728	-2.5470435674339287	9.310534528067857
O	-2.252707356767857	-2.2797871474339284	4.2169097980678565
O	-3.8785490867678574	1.0158777768660714	4.842675358067856
O	-7.297256876767857	-0.23499394743392843	3.933955908067856
O	-6.669376906767857	-3.013088877433929	1.4313566780678562
O	-3.2426039167678575	-1.9830316974339284	0.03371261806785619
O	-0.46382577876785724	-4.246683947433929	-1.2241343979321437
O	-2.3860684267678574	-7.180231427433929	-2.352731766932144
O	-3.3395055667678575	-7.843865727433929	1.2349506080678565
O	0.05910727923214276	-9.465673847433928	1.8850660080678563
O	-0.40586088376785723	-12.279597847433928	-0.6347588889321437
O	-4.027819906767857	-12.546243247433928	0.4285847480678564
