67

O	-0.18503434198468005	2.174684354680852	-0.49768658270212757
O	-1.51880744498468	2.0075943526808517	-0.5312747487021274
O	-2.60571876498468	2.0562354926808517	-0.9028543497021275
O	0.98996550501532	2.5104747296808516	-1.6353266797021275
O	0.73649183501532	3.7122248996808516	-1.8539459997021275
O	2.32134401501532	2.444998119680852	-1.2228041297021275
O	3.4513689650153196	3.2357618496808516	-1.2504816497021274
O	0.18204457401531998	2.864942129680852	0.4995643072978725
O	0.23912069201532	2.1454638396808514	1.6567407902978726
O	1.02901589501532	2.9471269096808514	2.4535437702978724
O	2.5102565450153196	3.4269796996808513	1.8840970402978725
O	1.26269772501532	4.217575669680851	0.7786437782978725
O	0.48919848001532	0.7768258186808517	1.3263330472978725
O	1.11965840501532	0.05763938968085158	0.3725509439978725
O	2.4759441850153197	-0.21951996031914844	0.6133419232978725
O	2.9405020050153197	-0.02254919031914837	1.9155971902978726
O	1.89945610501532	-0.4424342203191485	2.7923872502978724
O	0.5845584450153201	-0.018844990319148325	2.4747667202978723
O	1.17872518501532	2.8482773496808518	3.647429660297872
O	4.702498775015321	0.024694609680851576	2.5209721502978724
O	9.21425381501532	5.585414359680851	-5.090242009702128
O	6.257050375015321	1.7282147866808515	-7.933434629702127
O	5.39435844501532	-4.259118870319148	-8.374258179702128
O	7.719242865015321	-6.973474330319149	-7.126781159702127
O	9.10085437501532	-4.960082400319148	-4.217078769702128
O	5.64875719501532	-4.145684320319148	-2.9497153397021276
O	4.148404615015321	-7.5769463203191485	-3.5189684397021277
O	7.04051758501532	-9.65105273031915	-2.282104599702128
O	8.52360198501532	-7.497391120319149	0.45513114529787246
O	6.89119341501532	-4.407079410319149	1.5858348602978725
O	3.2180789850153197	-5.677653530319149	1.7837978802978725
O	3.79709568501532	-8.805477630319148	3.5231350402978725
O	6.0840234850153205	-7.098216230319149	6.017535660297872
O	3.44839813501532	-4.5109348003191485	6.826955350297872
O	0.79055256501532	-7.056131490319149	7.223707340297873
O	3.5458231850153195	-5.6715422003191485	11.780196770297872
O	0.04020308501531994	-4.230595620319148	11.832326070297873
O	-5.35364656498468	-4.713463190319149	9.123183510297872
O	-2.75460577498468	-0.6223234203191483	8.158261880297873
O	-5.98281044498468	0.5688568516808516	6.494804580297872
O	-5.97244365498468	3.7166639696808517	8.571039820297873
O	-2.44887469498468	4.370851529680851	7.773293570297873
O	-3.3314566049846803	3.7399246396808516	4.070885840297873
O	-5.88028762498468	6.4105914996808515	4.051113420297873
O	-3.5726507749846803	8.893781059680851	5.702156910297872
O	-0.77027679598468	8.490645559680852	3.2395955402978722
O	-3.0437794649846803	8.466325029680851	0.18648447829787249
O	-4.60843128498468	11.603137869680852	1.3380205602978725
O	-1.17383062398468	13.257420969680851	1.2956482672978724
O	-0.24601272098468005	11.856968069680851	-2.1509493897021277
O	2.65171744501532	9.902976909680852	-0.7200888297021275
O	2.72726696501532	7.251048379680851	-3.4693684897021275
O	5.15454063501532	5.1708669496808515	-5.546113039702128
O	-14.82087035498468	0.8605707676808516	1.7940515602978726
O	-11.23033105498468	1.9913806806808516	1.3895493102978724
O	-11.95816475498468	5.689504269680851	1.5293913202978726
O	-2.6043281049846803	6.026954159680852	-7.828413189702127
O	-4.568095074984679	-3.2372693503191483	-2.9487776297021275
O	-4.20640299498468	-4.587176200319148	0.5650915422978725
O	-2.0674117049846803	-7.437909790319148	-0.6169358557021276
O	-0.11362940698468005	-6.116616910319149	-3.5807364197021276
O	-0.19120873098468005	-2.458501350319148	-2.8855390297021275
O	-0.50442322470468	0.5646595366808517	-5.385792819702128
O	1.6001400650153201	-0.8535917803191484	-8.028133249702128
O	-1.35620790398468	-3.220382900319149	-8.508397099702128
O	-3.3534202449846804	-0.38488088031914836	-10.125117729702128
O	-0.88247431798468	0.006738929680851546	-13.024246329702128
