39

O	-4.903233137145688	-15.696968977259672	-9.327913040109662
O	-6.564185946682491	-22.604196542519976	-13.388147797538393
O	-5.3162316640212754	-22.26862269640493	-12.922966142851388
O	-7.349648581370087	-23.85779864973155	-13.489674176421689
O	-5.747804669452952	-22.209830057976518	-11.462479629482663
O	-7.592869656657141	-24.031361989086967	-11.962475980016656
O	-6.6537005480865385	-23.291943323966475	-11.143699929071722
O	-6.215374161409495	-24.711817843048077	-13.741893377397965
O	-5.24286903763947	-24.525654501416458	-12.668564302893234
O	-4.3977919453122745	-23.308956375010652	-13.11469253324718
O	-5.541063755037721	-24.188518033412237	-11.27686915530877
O	-6.994864260130366	-23.346178351745323	-9.824129912697552
O	-7.36004549988119	-21.556319592210464	-13.205825345574201
O	-7.247763891401596	-19.594534811079498	-12.752488517341298
O	-5.954717450485656	-19.16426155083167	-12.870586782952323
O	-5.755972867633102	-18.976800525359785	-11.54870444578718
O	-5.792426233011852	-19.389844678442927	-14.26663418362488
O	-6.651238016556692	-19.452544962128396	-10.660502946902911
O	-7.622608052287934	-19.394926014135297	-9.672409139612377
O	-7.936087530838712	-18.04510619347199	-9.365171343930864
O	-6.968012511377639	-17.265917597755134	-10.027781626097608
O	-5.715293600206598	-17.83519379326694	-9.494699036413612
O	-5.830696548585269	-19.247634518370727	-9.374403821811383
O	-6.293355512454333	-20.45800483030958	-8.671639352965354
O	-4.605138436894045	-20.07335107177074	-9.80903425292082
O	-7.128623114798293	-16.053611419988087	-10.669034451806512
O	-8.443038133075591	-15.587841301046996	-10.803039772426521
O	-8.837131565643082	-14.284065727354609	-10.695672322199158
O	-7.921156036182238	-13.347498981076658	-10.302003212671261
O	-6.603827308318156	-13.706310356827567	-10.209463256836143
O	-6.328018884518756	-15.04115877395136	-10.07978429546582
O	-9.12081331131089	-17.804536306186534	-9.599541534992873
O	-8.43122359633529	-19.517116467991702	-12.116274369043026
O	-8.235631285382318	-20.869469843285632	-11.620825423537404
O	-8.332556362637474	-21.898682244085986	-12.372178804923696
O	-9.326630869372714	-22.511524801354824	-12.726062433509108
O	-9.66617269586559	-20.666773553238894	-10.957204107762372
O	-7.365546999860422	-18.16376329259634	-13.002835132710942
O	-9.753545059669253	-22.167550292541158	-10.562314404474122
