87

O	-1.848782909107693	-0.7744854619553851	1.3037023618923076
O	-2.629970316107693	-0.5046988689553851	0.2692366878923077
O	-1.490080391107693	-2.033671771955385	1.9487841818923077
O	-1.867057808107693	0.4697448691446149	2.084219271892308
O	-2.793104396107693	-1.3977283719553852	-0.8698617621076923
O	-2.150312314107693	0.904447939044615	-0.05292460510769231
O	-1.858390278107693	-3.234987791955385	1.4092425718923076
O	-0.20906504610769305	-1.9362020219553853	2.3864036618923077
O	-2.710965096107693	1.189904235044615	1.2717561318923076
O	-3.5351886661076932	-2.601027791955385	-0.32873787610769234
O	-1.500535156107693	-2.103349041955385	-1.2998486881076923
O	-2.958736966107693	-3.3361106019553852	0.5561276938923077
O	-0.996970771107693	-4.312804731955385	1.5536402718923077
O	0.6671997638923071	-2.9337340919553854	2.1109079918923075
O	-4.092304306107693	1.115191101044615	0.9522058318923077
O	-3.9669937261076926	-3.354147781955385	-1.5343362881076923
O	-1.867335493107693	-2.731808151955385	-2.4262754981076924
O	0.340735763892307	-3.953557071955385	1.2902390318923076
O	-4.408070236107693	1.677671298044615	-0.46901782210769233
O	-3.151668446107693	-3.449833891955385	-2.5926118781076926
O	-5.898924176107693	1.6877902380446148	-0.5382071381076923
O	-3.7949177761076927	2.912124128044615	-0.49864726810769233
O	7.320441693892308	6.425762788044615	-8.006286478107693
O	4.986271873892307	4.419263168044615	-10.209123668107694
O	1.236265903892307	5.1410308680446155	-9.935917758107692
O	-0.9871326841076931	2.084060868044615	-9.994485778107693
O	-4.665561106107693	3.020946778044615	-10.351694568107693
O	-4.384834336107693	6.150313668044615	-8.157231758107692
O	-4.438114636107693	3.662192168044615	-5.191438868107692
O	-0.874755150107693	2.322022858044615	-4.868275418107692
O	2.3129943538923072	4.393574588044615	-5.460460278107692
O	5.567118863892307	2.489908078044615	-5.311320848107692
O	9.315880083892306	2.877827398044615	-5.767532058107692
O	12.145011583892307	0.3663022831446149	-6.0688811681076915
O	8.742910983892306	-2.5944473019553853	-5.329969188107692
O	7.743857303892307	-0.8198039219553852	-2.106763828107692
O	5.124971753892307	1.6346552880446148	-0.8602051711076923
O	6.604357453892307	4.416823238044615	1.2810247718923076
O	4.168867093892307	4.783221768044616	4.211412391892308
O	4.021244343892307	7.660374408044615	6.787210031892308
O	1.420453203892307	5.714837608044616	8.848683801892307
O	3.880468183892307	2.930163158044615	9.854668131892307
O	7.532876003892307	2.5473134380446147	10.844728531892308
O	0.28512130389230705	-13.688925961955386	-1.3345323181076925
O	3.8884652338923074	-14.962966061955386	-1.3577087181076923
O	3.1891778938923068	-14.052860061955386	-6.853858838107692
O	5.641549813892307	-11.516632961955386	-5.325264208107692
O	1.340666933892307	-7.407204781955385	12.903428331892307
O	-2.373999871107693	-7.632486911955385	13.584142931892307
O	-4.307377966107693	-6.896440301955384	10.439704731892308
O	-8.114618446107693	-6.819633371955384	10.280443231892308
O	-2.2018219391076927	-11.851840661955386	11.258397631892308
O	0.8855265738923068	-11.141833961955385	9.227106541892308
O	0.06764177389230697	-13.541136861955385	5.282266221892308
O	-6.729587816107693	-10.863073161955386	0.9675067218923077
O	-6.029540036107693	-8.057690161955385	0.5977228188923076
O	-2.330981038107693	-8.828268041955386	0.1030654658923077
O	-2.437166055107693	-10.863236661955385	-3.0800564681076925
O	-3.8151255561076933	-7.738696081955385	-4.863951048107692
O	-0.640813835107693	-5.758732361955385	-4.032584818107692
O	1.200345533892307	-4.547645271955385	-7.125805198107692
O	4.1148603838923075	-3.799311771955385	-4.8019085881076915
O	6.266211573892307	-6.341693921955385	-2.8742342681076924
O	7.0274183538923065	-4.645770681955384	0.44436864789230773
O	6.814166093892307	-1.5136105819553851	2.6639549718923075
O	9.144188183892307	1.0985796000446149	3.974643551892308
O	7.651847553892308	2.8461029980446146	7.049669501892308
O	8.424908283892307	6.585599568044615	7.301914341892308
O	6.7636391238923075	6.994994808044615	10.736148031892307
O	-2.982160336107693	8.576781508044615	-13.353221968107693
O	-0.734704619107693	8.726394708044614	5.608314591892308
O	1.1076152038923068	8.305574748044615	2.3127859818923078
O	0.2874406538923069	4.604225948044616	2.4444294718923074
O	-3.482858346107693	5.284443498044615	2.4167575718923078
O	-5.249417776107693	5.348802638044615	-1.0362723661076922
O	-8.110943346107693	7.598523578044615	0.011511672892307673
O	-9.296487996107693	10.335144658044614	2.2830994218923077
O	-10.982433396107693	8.315827628044614	5.015823611892308
O	-12.816651016107693	3.6018930180446147	7.983442901892308
O	-6.807451476107693	9.905236328044614	7.2486642618923085
O	-5.553258756107693	12.130784538044614	4.416360231892308
O	-4.243511116107693	9.698710498044614	1.8164060618923077
O	-3.345786236107693	9.706468628044615	-1.9030823981076923
O	-6.557908696107693	11.623994038044614	-2.781251998107692
O	-13.065872116107693	-7.673431811955385	-10.737689368107693
O	-9.355360316107694	-7.173348211955385	-9.911418848107694
O	-9.308545136107693	-3.597955501955385	-11.207378868107693
