38

O	-4.622961440142696	-13.14806168574747	-15.313399301675574
O	-4.233988023437609	-14.175555385421807	-14.477022713132472
O	-5.361018918810739	-14.39421614722378	-13.619196814225038
O	-5.074476272031426	-15.430609142225691	-12.455561476358431
O	-5.411234766266523	-14.774200357919625	-11.168501992206231
O	-5.076045504641555	-16.0725309172369	-10.361736061789614
O	-3.623553776846881	-16.146541343381273	-10.91714159553618
O	-3.02052502226908	-17.149138888485556	-10.321679619142682
O	-1.803955053889045	-16.646746120616253	-9.952928631993677
O	-1.6963208276046746	-15.275094724905559	-10.221620375988255
O	-2.821319934774026	-15.033224968934132	-10.989503468552378
O	-3.2593790974259376	-13.62209152287322	-11.126178068892845
O	-3.5939656509768088	-12.90385867927836	-9.974692979353904
O	-4.169456460578521	-11.663478274404515	-10.099732170242502
O	-4.097160586183318	-11.066722029607519	-11.346426287761672
O	-3.5322729134143627	-11.745227952934746	-12.419522118347166
O	-2.6619197270234443	-12.780394132273788	-12.070785031719621
O	-3.934927731558364	-18.14177518046114	-9.6429873320896
O	-3.3194644483803977	-18.76170461118635	-8.80062698791696
O	-5.124064355044572	-18.688214863041633	-10.200206738705406
O	-6.4622189456209735	-18.46656179153709	-9.66286018609711
O	-7.655877223119054	-19.064883219660597	-10.166052330299248
O	-8.657697732005538	-18.277455837973452	-10.931043641783702
O	-8.066910357345858	-20.427621987669504	-9.746210897366312
O	-5.546518383727939	-18.618544036345845	-11.571773144549333
O	-6.425938581788758	-19.75276821497004	-12.009102032202085
O	-6.619183694970626	-19.782175204116797	-13.474024583968117
O	-5.377441556169147	-19.318524611883397	-13.89869166174687
O	-4.340209818093213	-19.80915220147392	-12.978933036965078
O	-4.304506561297767	-18.39877974146898	-12.289077547429432
O	-3.9445848036317845	-20.282215647122097	-11.712686695176583
O	-2.7119931928771464	-19.913311037904162	-11.511183585509158
O	-4.064280399154557	-21.2900073859212	-10.795276368578755
O	-3.12968644556214	-22.425032008550875	-11.157853787277219
O	-3.874177041969005	-22.77701737375325	-12.430065082420654
O	-4.883227088052918	-23.627117809536905	-12.1090626043311
O	-5.729901588640722	-22.92526127388344	-11.338054847715533
O	-5.15489222090722	-22.053569670589276	-10.291477572665112
