30

O	-7.529399260058126	-16.415705700883922	-10.832350833944108
O	-7.163137376622884	-15.68864968688715	-12.021859517576793
O	-7.166355605713666	-16.748782170163572	-13.01762722623182
O	-5.763745809717788	-15.351532062017709	-12.298972412857445
O	-5.211593203748112	-15.813853919050985	-11.18357929280264
O	-5.386985916562503	-17.082738251182782	-10.720596169484038
O	-4.081950904107206	-17.38437351856348	-9.942675024194608
O	-3.1066913386130874	-17.08154889384016	-11.07510564788058
O	-3.786119429871089	-17.126860565750462	-12.397995867406788
O	-4.459554725912193	-18.427223905362457	-12.453207277606907
O	-5.472276383236958	-18.300496137184048	-11.448655080965134
O	-5.6654012073599045	-15.244119714605443	-9.899592434832224
O	-6.439924591209754	-14.347905831255723	-10.16284268794604
O	-4.224913311334438	-14.737391409818771	-10.01587436863879
O	-3.605516325072303	-15.02815734165494	-8.87745396033165
O	-2.439943157006332	-14.303352623434868	-8.702804480491832
O	-2.873497273700794	-13.00052106304913	-8.612856596324281
O	-3.4845501011386517	-12.690439858185176	-9.835734297280668
O	-4.231490096569457	-13.4746017619949	-10.440864876726133
O	-5.352579520526229	-12.779034664057527	-11.000950997105958
O	-5.049857491786466	-12.894467047179836	-12.427950892631143
O	-3.5673201296007258	-12.782042795313552	-12.796544986494622
O	-3.203731179717243	-11.64691638443912	-13.541970229156163
O	-2.4937064211511166	-10.90468362407575	-12.588652728860483
O	-1.7712922341970208	-11.80619591573048	-11.890917340023176
O	-2.4120226227442974	-12.959793586488452	-12.173159772911703
O	-1.8596085275266243	-12.014166768252839	-8.26573318800511
O	-1.982468501592197	-11.755683260462744	-6.808134473435648
O	-0.4110206952007749	-12.150004920633803	-8.446987453548902
O	-2.1141056460072867	-10.618333198545168	-8.889199282912749
