28

O	-5.275972794369478	-13.856395568602746	-8.475319557295949
O	-4.311097283458546	-14.510580641520319	-7.920322756046518
O	-2.5805513387356984	-12.826625871762733	-12.937573181634262
O	-3.8691957421217387	-15.621652714611315	-8.476885658703333
O	-4.619696812904141	-16.446129803770717	-9.229443773422062
O	-5.737175160968099	-15.846325069005267	-9.589905414366672
O	-5.866135916907918	-12.640138454712297	-8.118123507209358
O	-3.9863239455583557	-10.960607631191465	-9.339882265074479
O	-5.985229021755034	-14.530713793135915	-9.476175455505096
O	-2.55739186558438	-16.003060693293016	-8.234067690880654
O	-1.3759106527201297	-13.599373217423448	-9.709608089385478
O	-8.057057338859721	-16.18679635109593	-9.365921202546048
O	-3.010356254074551	-12.884217494761934	-10.830387115971861
O	-6.847348036188185	-16.619720638466084	-10.11320084322838
O	-6.743041923049505	-12.391331008513909	-10.778163014465324
O	-6.057138119754508	-11.187416597643374	-10.644859342758508
O	-4.688563345561779	-11.242205827016598	-10.553151051082164
O	-4.3334224887075825	-12.421422456609921	-11.145289528786039
O	-5.292872071011961	-13.499993796327471	-11.403604997227252
O	-6.3760910433943385	-13.638711135608057	-10.520827798358336
O	-2.9432873113494904	-11.654680358334064	-8.844440601952254
O	-2.261496601040771	-12.684651128186701	-9.598862512392795
O	-3.084585296541097	-14.34877207502079	-11.002363164693719
O	-3.9972167938778025	-14.814920974178323	-12.097296592796067
O	-3.624277859736968	-13.678932659138221	-13.125361044584945
O	-2.6032245285026803	-11.959398759122852	-14.006168378264565
O	-2.966512472941416	-11.934069322514162	-7.286954521148671
O	-2.0620373850683302	-10.557767915645085	-8.133068415583413
