88

O	5.2961873565327275	-1.2167167841072735	-1.8629287393999996
O	5.195613256532727	-1.9505436241072733	-0.7408461473999997
O	5.117227016532727	-3.2971281341072736	-0.9892658333999996
O	3.7847083765327274	-3.9385396541072737	-0.6726086913999997
O	2.9049146865327273	-2.8323412041072737	-1.0868302673999997
O	1.6752098665327275	-2.7682199641072733	-0.5167333603999997
O	1.4791437965327274	-3.6121746541072737	0.5332095146000003
O	0.4511679565327274	-4.523510994107274	0.5214420766000003
O	-0.13697903776727258	-4.7828942741072735	1.7302055206000004
O	0.3020645735327274	-4.064336274107274	2.8086288906000005
O	1.6900625165327274	-3.7971581041072735	2.8020722906
O	2.376926046532727	-3.7881418441072734	1.5894603506000002
O	3.465342796532727	-2.805401644107273	1.8279326706000003
O	4.305240376532727	-3.0044733541072732	2.7216191906000002
O	3.0998016965327273	-1.5154559041072735	1.5040206006000003
O	4.066934406532727	-0.49313502110727336	1.8523765706000004
O	3.8584792665327274	0.46275776989272666	0.7958718806000002
O	5.073220956532727	1.2064140878927265	0.4822602646000004
O	2.793847686532727	0.15699699589272662	-0.15661286339999966
O	1.3701314565327274	0.17959388589272662	0.4004706276000003
O	0.7402213845327275	1.2043117268927266	-0.46878953639999965
O	1.5625354065327275	1.0203621198927266	1.6117822306000003
O	0.3658552455327274	1.6527600058927265	1.8251060106
O	2.3913634465327274	2.1435435458927268	0.9549188706000002
O	2.337953936532727	3.2776055758927267	1.8286990806000005
O	3.4051508465327274	4.227109305892727	1.4667510806000004
O	2.7013423565327273	2.674011085892727	3.1692255906
O	3.942098606532727	2.3849230958927263	3.2754501706
O	1.9393535265327275	1.5928428358927267	3.6014480806
O	2.286084066532727	0.5252772598927267	4.357965460600001
O	2.0293127165327274	-0.8675930441072734	4.353891470600001
O	0.6222724655327274	-1.2273419141072734	4.556382360600001
O	0.6044286585327274	-2.3487340741072735	5.5415606206
O	0.0461463595327274	-7.657245824107274	-11.677130679400001
O	1.4841332665327274	-6.956950124107274	-8.2152065694
O	-1.4134939734672725	-7.491624804107274	-5.765769679399999
O	-5.068616703467272	-6.562181094107274	-6.395516529399999
O	-7.531383183467272	-7.603754134107273	-3.7156963793999997
O	-7.856703793467273	-7.1409274041072734	1.3647093506000003
O	-5.766105443467273	-4.681256794107274	-0.6674049043999997
O	-7.437674373467273	-1.2400515541072734	-0.9164273723999997
O	-4.579730953467273	1.2290106948927266	-0.4110449723999997
O	-4.532700673467272	5.025508445892727	-0.9917505573999996
O	-1.0591478274672725	5.285438495892726	0.6865914226000003
O	-2.3807636734672726	4.347306245892726	4.1781554606
O	-5.460152003467273	5.004591985892726	6.349412450600001
O	-6.098336983467273	2.152395985892727	8.7724672206
O	-5.807927283467273	-4.144135554107273	9.5075865506
O	-0.16358949676727258	-15.453608544107274	10.6636047206
O	3.530801946532727	0.3956416827927266	12.7832683206
O	7.224595246532727	0.6002803328927266	11.8628479206
O	8.007162076532728	-1.4457649741072733	8.7614116706
O	11.502471236532728	-1.5446445041072734	7.192286780600001
O	4.0301079965327276	-4.8686546541072735	13.2489021206
O	7.566759336532727	-9.733128544107274	3.2288287906000006
O	4.209413906532728	-10.471338444107273	4.853572300600001
O	4.183534726532727	-14.245766844107274	4.3966052406000005
O	4.2270380165327275	-13.707418244107274	0.5822640856000003
O	0.9729525965327275	-11.763169844107274	0.6665342426000003
O	-5.0818072434672725	-11.195411444107274	4.384336810600001
O	-5.291011753467273	-7.509621134107274	5.290538700600001
O	-5.4424604134672725	-3.871759844107274	4.243862050600001
O	-8.193024103467273	-1.2281199641072733	4.0033748306
O	-6.494205923467272	2.2222229558927267	3.9597777006
O	-8.193980403467274	4.809177505892726	1.6960069706000003
O	-5.8618955634672725	7.671621595892726	2.7982425206000006
O	-6.876003173467272	10.643815055892727	4.9539114906
O	-2.261556663467273	9.838362105892726	8.650316030599999
O	-2.1908749534672727	12.615245355892727	1.4397072406000002
O	0.1521253905327274	13.277140055892726	-3.4029434593999994
O	4.1310774665327274	11.923936455892726	-6.9793446794
O	2.188713306532727	9.714701955892727	-4.5038353894
O	-0.8129619954672725	7.9855227858927265	-6.1871471094
O	-0.7294235544672726	4.717312845892726	-4.224270359399999
O	-3.125429863467273	1.9396013258927267	-5.165614819399999
O	-1.3537944234672725	-0.34157057410727343	-2.6796169194
O	1.9613099665327274	-0.04050751110727341	-4.521338539399999
O	2.8619386365327273	-2.699305974107274	-7.138152959399999
O	5.157898006532728	-0.49495129110727343	-9.2108508694
O	12.621356536532728	3.2496317058927264	-3.4608438893999995
O	13.420425136532728	5.962689365892726	-0.9880600523999997
O	10.283701136532727	6.900050315892726	0.9718179806000002
O	7.909206616532727	9.039608215892727	-6.6261612994
O	5.050745876532727	6.555366665892726	-6.236155009399999
O	2.6166209865327272	5.815392915892726	-9.0857988294
O	1.3996413265327274	2.2937749558927267	-8.368556099400001
O	-0.3043302424672726	-0.5799731871072734	-10.1872515694
O	0.6292095395327274	3.4574947958927265	-13.7690514794
