93

O	-1.6957900136533322	1.5532961184333336	1.8365405645333328
O	-2.6404668586533324	0.9769691708333335	2.452330664533333
O	-0.5186676926533322	-1.7612397551666663	-2.069796665466667
O	-3.8157690186533326	0.9394355998333335	1.545740684533333
O	-4.139536858653332	2.3571228368333337	1.5495425545333332
O	-3.1666856086533324	3.2700264948333335	1.607393264533333
O	-0.5067802096533321	1.9513090408333336	1.3917208545333328
O	-2.116786040653332	2.4959459388333336	0.8568043145333332
O	-4.7704842186533325	0.14451601483333354	1.7399328245333332
O	-2.866965468653332	3.8798138248333336	3.014896914533333
O	-2.021791569653332	-0.3589087251666665	-2.7501731854666667
O	-4.204602018653333	3.9843158548333335	3.6399419845333334
O	-3.303473448653332	2.9095688848333334	-1.2195547314666668
O	-2.9440994986533324	3.0423656948333333	-2.569410755466667
O	-2.456177598653332	1.9439683998333335	-3.135394635466667
O	-2.0334958226533324	0.9616315528333335	-2.2116829054666667
O	-2.378751534653332	1.1610196818333334	-0.8375567488666669
O	-2.307366778653332	2.4730592848333335	-0.4706489094666669
O	-2.435962967653332	1.3744600578333335	-4.456667495466667
O	-3.850661418653332	0.7286773758333335	-4.163439865466667
O	-3.244923468653332	-0.5496336151666665	-3.553065655466667
O	-2.503528538653332	-1.0674927051666665	-1.527322311466667
O	-1.5401988850533321	-0.5402389851666665	-0.4327596874666669
O	-0.26512203865333217	-1.0243483551666666	-0.9944991846666669
O	-1.1748093476533321	-2.9469975851666668	-1.6691200714666667
O	-0.1319975186533322	2.3624615978333336	0.11468559453333305
O	0.7368217913466679	1.8641759268333336	-0.8300683350666669
O	0.5403062913466676	2.4965853558333335	-5.041429495466667
O	0.19659854134666777	3.4491849148333333	-4.123951145466667
O	0.4116860113466678	3.1803849648333333	-2.8068811854666667
O	0.6216515813466679	1.9378426768333334	-2.2770103354666666
O	0.849927581346668	1.0229759228333335	-3.279241945466667
O	0.8326532813466676	1.2297950558333335	-4.6092738254666665
O	9.745189281346667	-7.884872585166666	-4.148207015466666
O	-1.4682744794533322	-7.831789835166666	-9.977007925466667
O	-1.6415070036533321	-9.286988825166667	-6.413827175466667
O	-2.3380047626533322	-5.624249065166667	-5.257999635466667
O	1.0758580713466677	-3.8630560051666665	-5.227611835466667
O	4.314040441346668	-5.5494534951666665	-4.001005965466667
O	7.399850671346669	-3.399998505166667	-4.329281355466667
O	11.170709381346667	-3.462603995166667	-3.872231515466667
O	10.370528881346667	1.3625439758333335	-6.500027715466667
O	8.768994981346667	1.3471791358333336	-3.059087295466667
O	6.022949391346668	-0.49681796516666665	-1.1728047184666668
O	7.007021561346668	-1.5266584451666665	2.327028704533333
O	4.133637361346668	-0.7485036251666664	4.628481304533333
O	3.3146902613466684	-1.6754392951666666	8.228825294533333
O	0.2738384013466677	0.7431558508333335	8.324054574533333
O	2.5115502313466678	3.8662419348333334	8.181196984533333
O	5.897240201346668	5.1238783948333335	9.475933204533334
O	1.0720633213466677	11.721021574833333	-10.358209375466666
O	4.566067031346668	13.221074874833334	-10.461588185466667
O	-0.6986631926533322	13.955007374833333	5.032076714533333
O	-4.484089648653332	14.067461074833332	4.816250754533333
O	-5.728397278653332	11.617563664833334	2.2294437145333332
O	-9.448898858653333	10.972763954833333	1.534195704533333
O	-0.3892836486533322	15.236712874833334	-0.08076836346666683
O	-5.377331138653332	7.307913714833333	-7.026176965466667
O	-1.6368646856533322	8.079155404833333	-7.108291685466667
O	-1.1484719656533322	8.121217264833334	-10.881131545466667
O	-2.085199427653332	4.406982594833334	-10.965795795466667
O	0.6645810413466677	3.3833554048333334	-8.559879555466667
O	3.268907621346668	1.1295508808333334	-10.277704725466666
O	5.674104871346668	2.0313854508333336	-7.479982415466667
O	7.266105131346667	5.441527234833334	-6.828905935466667
O	7.056416841346668	5.742209844833334	-3.086189235466667
O	6.548876131346668	4.213910894833333	0.3399156245333331
O	8.772857681346666	3.044636914833333	3.1734494745333333
O	6.7651696413466675	2.946334134833333	6.452182804533333
O	7.535759331346669	0.01702309483333342	8.807522634533333
O	5.185144091346668	1.2294200348333335	11.599036304533334
O	6.216562811346668	2.6779681048333335	14.947388904533334
O	0.5234716513466677	-15.545742625166667	-5.708748535466667
O	-4.605196298653333	-4.144666265166666	11.607090004533333
O	-1.8415026406533321	-6.164466135166666	9.884714604533333
O	-1.0225483426533322	-3.8473446751666662	7.029686494533333
O	1.4650426113466677	-4.965535625166667	4.396501224533333
O	0.5665905313466679	-1.8103242051666664	2.456644854533333
O	-3.1038934486533325	-2.897404145166666	2.182918744533333
O	-4.035605878653332	-4.725227825166667	-1.0661839564666669
O	-7.030031308653332	-6.5268593951666665	0.4144892545333331
O	-8.675211848653332	-7.908771025166666	3.5123824445333334
O	-10.946054328653332	-5.0441474851666666	4.455943964533333
O	-13.753746018653333	-4.479518085166666	6.944183784533333
O	-13.485737918653333	0.24772153483333348	4.136530494533333
O	-10.529718798653333	-4.799425025166666	10.007378904533333
O	-7.332465038653332	-4.737178395166667	7.917751124533334
O	-5.475895438653332	-7.920911665166666	6.953095414533333
O	-3.674879468653332	-6.977881005166666	3.744612094533333
O	-2.008532186653332	-8.797514425166668	0.8065428245333331
O	-4.9325791986533325	-11.282107625166667	0.5345820845333332
O	-9.825689668653332	0.09324062483333351	-17.475155195466666
O	-6.429545538653332	0.5772994548333334	-15.758227395466667
