100

O	-3.785361040032787	4.755297809065574	3.273994234508197
O	2.6038818499672134	-0.13280512093442587	1.777970104508197
O	2.714627259967213	1.1967621190655742	2.104129694508197
O	3.3614325499672137	-1.365085940934426	2.104126994508197
O	2.0338625899672134	1.0418768950655741	3.458863144508197
O	2.9388617499672134	-1.4346615409344259	3.600191234508197
O	2.4658142999672132	-0.16884694093442576	4.122792714508197
O	4.652332409967213	-0.724418710934426	2.155748884508197
O	4.586090399967214	0.3836761390655741	3.104535534508197
O	4.052407229967214	1.575757042665574	2.275279594508197
O	3.7472775699672134	0.45220010906557406	4.300818934508197
O	1.9629388899672136	-0.3083446809344259	5.383052944508196
O	1.3153577399672134	-0.399469470934426	1.595553684508197
O	-0.44093623403278676	0.5634551390655742	1.361185087508197
O	-0.21352354603278678	1.8879863090655742	1.106328213508197
O	-0.6898707740327867	2.334169442065574	2.287864454508197
O	0.4733119199672132	1.741457441065574	-0.13179975449180298
O	-0.9419257260327867	1.461295210065574	3.283501554508197
O	-1.7102891820327868	0.7506141390655742	4.193314214508197
O	-3.0855946600327866	1.0598543530655742	4.027231924508197
O	-3.1286812800327866	2.154140588065574	3.1417729045081972
O	-2.2678922700327866	3.1305774890655744	3.836877474508197
O	-1.1543680510327867	2.470555866065574	4.426125174508196
O	-0.5395236830327867	1.663198857865574	5.495269024508197
O	0.2073776499672132	3.178770319065574	4.296568014508197
O	-4.032370830032787	2.408670879065574	2.129228214508197
O	-4.953381450032786	1.3921317770655741	1.844669324508197
O	-6.263405680032786	1.5810925723655742	1.505850074508197
O	-6.784415950032787	2.8446462690655743	1.561744284508197
O	-5.940380400032787	3.901240289065574	1.7712133545081972
O	-4.727123270032787	3.627123409065574	2.343554414508197
O	-3.7288592900327866	0.054478889065574077	3.724231554508197
O	-1.2102750960327868	-0.38137136093442603	1.932813914508197
O	-0.1281284590327867	-0.6822073809344258	2.8553332945081973
O	0.9333416599672132	-1.295796160934426	2.494785744508197
O	1.1335857499672133	-2.4927102309344256	2.367142644508197
O	-1.1186670470327869	-1.795222100934426	3.410274104508197
O	-1.6308537200327868	1.001704823065574	0.6430715745081971
O	-0.0016805590327867437	-2.426174890934426	4.287851674508197
O	-5.180283850032787	12.327318869065573	-3.2878480354918027
O	-7.4764816400327865	9.356886919065575	-4.030240675491803
O	-11.609793990032786	0.7212709070655742	-4.806319245491803
O	-8.135310720032788	2.1620485590655742	-5.074743785491803
O	-5.700225720032787	0.016002349065574073	-7.107137725491803
O	-2.492523220032787	-0.0358457109344259	-4.897893075491804
O	0.9748298899672133	-1.247826920934426	-5.996264865491804
O	1.9755627099672135	-0.8126597009344261	-2.253213025491803
O	-0.07546833903278671	-3.734314840934426	-1.045737005491803
O	-1.2396809640327868	-7.187869200934426	-2.219725525491803
O	-4.545318510032787	-7.917521830934426	-0.532889266491803
O	-8.173986540032788	-7.285941130934427	-1.6230654954918031
O	-10.071976290032786	-5.6351531709344265	1.277450213508197
O	-13.706436890032787	-4.599726940934426	1.559570454508197
O	-15.863390090032787	-3.8142652209344257	4.612046814508196
O	-15.486807890032786	3.9004571690655743	9.201788364508197
O	-4.763928570032787	-8.697032130934426	10.549399654508196
O	-3.0627641200327864	-5.540471260934426	9.326109274508196
O	-1.2412476880327867	-3.3474681109344258	11.763680854508197
O	-1.7647615520327866	0.23667357906557407	10.821346854508196
O	-0.17595761403278676	3.152665149065574	12.719273954508196
O	-7.621838690032787	-3.516103060934426	11.105916754508197
O	-8.971600550032786	-7.080078190934426	11.207403454508198
O	-7.785151490032787	7.866325389065574	8.706626944508196
O	-10.271972990032786	5.350492139065574	7.371522044508197
O	-11.760940990032786	-0.762263180934426	-0.274561676491803
O	-8.569522880032787	-1.7623042709344259	-1.9517297354918028
O	-7.250103650032787	-4.062390120934426	-4.612285975491804
O	-3.5221905200327868	-4.677731100934427	-3.9404781754918026
O	-1.3969754700327868	-4.985253450934426	-7.176260375491803
O	1.7940907899672132	-5.9433882809344265	-5.276126945491804
O	3.4356506099672135	-9.370326330934427	-5.293939905491803
O	2.336203579967213	-12.607824530934426	-3.543982705491803
O	5.435055299967213	-12.382150130934427	-1.356498265491803
O	3.7807689599672134	-9.460260630934426	0.661807323508197
O	0.24272170996721332	-10.803696730934426	0.758360075508197
O	8.212781979967213	-9.144409630934426	-4.469897585491803
O	7.963070529967213	-5.325145030934426	-4.183258235491803
O	10.758121809967214	-0.862755050934426	-5.360514515491803
O	15.365986209967215	3.279016129065574	-2.481087265491803
O	12.133779909967213	4.347640809065574	-4.163458315491804
O	8.768144959967213	2.5038834340655742	-3.7469344354918026
O	6.426718249967213	3.124784879065574	-6.718231695491803
O	3.0869978899672135	3.156342649065574	-4.914937485491803
O	-0.07594375003278675	3.972089389065574	-6.895441215491803
O	-1.9669925100327865	3.9486285190655743	-3.546872455491803
O	0.14261288796721328	6.744817159065574	-2.008780175491803
O	-1.1994023380327867	10.287094149065574	-2.419486015491803
O	2.2153998799672134	11.974858169065573	-2.2560146354918027
O	6.775825879967213	9.547402739065575	6.161644044508197
O	9.109435069967214	7.100333579065573	7.765689724508197
O	8.284833169967213	3.6792507190655743	6.403999674508197
O	9.153799799967214	0.6372047070655741	8.689487864508196
O	10.119084709967213	-2.195167430934426	2.947662374508197
O	11.777521409967214	0.9051657050655741	4.420831034508197
O	12.486193409967214	4.311331849065574	1.5768352245081971
O	11.029368709967214	7.1208171890655745	-0.4324481774918029
O	7.560548869967214	6.517865669065575	-1.8989733754918028
O	6.6969361899672135	7.921385729065575	-5.3912645154918035
O	2.9304866699672134	8.381586509065574	-5.280070375491803
O	0.18644827896721328	10.245702619065574	-7.139841015491803
