94

O	1.4192140783684213	0.03606452146666661	-4.789715272280703
O	0.9584885983684215	1.2867936474666666	-4.373801452280703
O	0.1516185083684214	1.1130280014666667	-3.2899523122807026
O	0.3383854883684214	1.8485680134666667	-2.2122774902807025
O	-1.8091863266315786	1.7314070344666666	-3.2536343522807027
O	0.8406579883684215	-1.1794308765333334	-4.188233292280703
O	-0.9473716336315785	2.6100018634666666	-2.646517746280703
O	0.17790642836842152	-1.0643896265333335	-3.0286197722807024
O	-0.4063142446315786	-2.1957231465333336	-2.5378305762807027
O	0.43338105836842145	3.5330808034666665	-0.8894791442807027
O	-2.8424231316315787	-0.6069817865333335	-4.4907193822807026
O	2.6436343583684216	-0.0365205255333334	-4.770078532280703
O	-0.8232693836315785	-3.1305188565333335	-3.4364297322807027
O	0.5026913483684214	-2.1705924265333336	-5.031555362280702
O	1.6067015583684214	2.4863613834666665	-4.257230352280703
O	-0.6335520546315786	-2.8694702465333335	-4.764294302280703
O	0.7089047283684216	2.0840604334666666	-0.8616288022807027
O	-0.9131560216315786	3.4125481734666665	-1.4893041102807028
O	-1.2996005971415785	-2.0034900065333336	-1.5217264132807027
O	-3.863637051631579	-1.0615258665333336	-3.670751992280703
O	-1.5292569356315786	-4.283216926533334	-3.0584024822807026
O	-3.0428490616315784	-0.8639676865333333	-0.7682412222807027
O	-2.5225226216315786	1.2151063144666665	-0.1792145522807027
O	-1.7106275226315786	-0.7004227265333335	-1.3303386202807026
O	-3.0706341116315787	0.019771693466666518	0.4177826077192972
O	2.4874909783684216	2.3898764534666666	-3.070407902280703
O	0.9666382883684213	3.7925650634666663	-4.136971742280703
O	-4.037373141631578	-2.3984524765333335	-3.4880164922807024
O	-4.927828181631579	-0.2612214965333334	-3.3557212222807027
O	-1.8739629476315787	-4.335293056533334	-1.7003174452807026
O	-3.6787406716315787	1.5867628144666666	-0.8295771322807026
O	-4.811963701631578	-2.8814426265333335	-2.4339016172807026
O	-5.737442561631578	-0.6955835065333335	-2.3072441222807027
O	-5.902405171631578	-2.0680010465333334	-2.1162203732807026
O	-1.8404314006315787	0.6906568558666666	-4.488193532280703
O	-1.6746507956315786	1.8081852934666665	-5.504703902280703
O	-1.3829064369315787	0.09974873546666652	-5.776925722280703
O	3.8348445083684215	-12.701678886533333	0.1332945977192972
O	1.9985687283684213	-9.923973786533333	-1.5897801312807027
O	-1.0432262146315785	-9.033641006533333	0.5886110777192972
O	-1.0069699926315785	-9.144825046533333	4.450780717719297
O	-4.354274931631579	-8.534914506533333	6.105880267719297
O	-8.07650386163158	-5.057944316533334	5.761234467719297
O	-4.477785521631579	-4.170787346533333	4.713938487719297
O	-2.785336221631579	-1.8489474865333335	7.274567537719298
O	-0.8085042376315785	0.6899032948666666	5.380153047719297
O	1.7446183983684214	3.3465467534666664	6.092050327719297
O	1.4904895583684215	4.901498413466666	2.549608627719297
O	-2.0647139436315785	6.174070233466667	3.010510357719297
O	-4.2083099816315785	7.7191963934666665	5.740076707719297
O	-17.941117381631578	-4.869945326533333	-5.062228422280703
O	-9.39960163163158	9.136516873466666	-4.7060848722807025
O	-7.677831581631579	9.416600853466667	-8.060270982280702
O	-6.384368971631579	6.091875443466667	-9.152652392280702
O	-4.217068291631579	5.305976363466667	-12.227035182280703
O	-12.71427688163158	5.504699413466667	-6.667660992280703
O	-7.056276561631579	-4.130539406533334	-10.171280332280704
O	-9.545190181631579	-4.142822736533334	-7.237895582280703
O	-11.26958109163158	-7.397140676533333	-8.013720932280702
O	-7.965547871631578	-9.262343286533333	-7.398464222280703
O	-7.7422916916315785	-8.057019916533333	-3.813933762280703
O	-8.816655511631579	-8.238729846533333	1.3807552877192972
O	-11.92780758163158	-5.992208976533334	1.5622739977192974
O	-10.54756733163158	-2.6211746665333338	2.5680178477192968
O	-7.668443291631578	-0.5025931665333335	3.818609817719297
O	-6.7621868316315785	1.1507155034666665	7.144325477719297
O	-4.272245281631578	4.007782753466667	6.5948705877192975
O	-1.4897414366315787	4.4417554634666665	9.098874717719298
O	-0.06222377163157855	7.596743273466666	7.428673577719296
O	-0.29549857163157855	11.121115113466667	8.824527917719298
O	-2.3138521816315785	13.282144513466667	3.671006657719297
O	4.864380478368421	10.980379413466666	5.388850407719297
O	9.61426951836842	8.751280943466666	3.9857197677192975
O	12.65773471836842	5.898576253466667	0.33758995771929734
O	8.98691711836842	5.513347793466666	1.3437903677192973
O	8.433095128368421	2.7964511734666666	3.994828597719297
O	5.017880308368421	1.4997594144666666	2.7490252177192973
O	3.6426900083684215	-1.5277388865333337	4.701015867719297
O	1.0322424283684213	-1.5995973265333334	2.334060647719297
O	3.225870328368422	-2.1770974665333336	-0.8601932782807027
O	3.9822374883684217	-5.806379676533334	-1.9578467362807028
O	7.473662578368422	-5.096126016533334	-3.3395658322807025
O	10.498554118368421	-2.9351878265333338	-3.2582601322807028
O	9.833619718368421	-0.4801987265333335	-6.040876592280703
O	7.110253078368422	2.1432856234666664	-10.494560172280703
O	7.025978548368422	5.887633163466666	-10.928977532280703
O	5.249658058368421	7.505848313466666	-7.992264642280703
O	11.634943018368421	4.315666293466666	-4.050723262280703
O	9.167740118368421	2.3025070334666666	-1.9623264232807027
O	10.335805418368423	-0.32702893653333354	0.5892914477192972
O	7.382688938368422	-2.7375828165333336	0.7497781677192974
O	6.693935388368422	-6.307068976533333	1.9874803377192973
O	9.924343618368422	-7.579569236533333	0.34463555771929744
O	12.037977518368422	-5.2770697965333335	2.587893957719297
