35

O	-2.3419470895595262	-18.571691750999445	-11.886310648767502
O	-2.1661057251721307	-17.884024079116493	-10.727557731040033
O	-1.8307442470533326	-16.565533500422738	-10.80204938224946
O	-2.2713985080393133	-15.626986765915403	-9.7668876606489
O	-3.043999316405266	-14.581702065627272	-10.380634109674691
O	-4.0529839237915	-14.712705425022795	-11.330403978091818
O	-5.1054616886282265	-13.927538337922105	-10.789003212007444
O	-5.670180532323001	-12.800994981708909	-11.255473019663913
O	-7.014459520709386	-12.699224326731787	-11.065083931240876
O	-7.704568705171592	-13.714361254638868	-10.474805731273335
O	-6.9615262334189065	-14.38919082954978	-9.46849713922538
O	-5.572123317500097	-14.362934083383058	-9.525072669083096
O	-5.0948431115593	-15.758429372843848	-9.175754314645733
O	-5.740718532507557	-16.275493212678576	-8.257642395513551
O	-4.9808066858712685	-16.57173925699081	-10.27882860419795
O	-5.327270122145828	-17.49680900305629	-11.093768131394455
O	-6.7609782442157105	-17.74967004335677	-11.152044764736015
O	-7.788756753239874	-17.60542231998555	-10.178144531821173
O	-8.920276671687242	-16.67783033791859	-10.21106774508485
O	-8.62456730745792	-18.894784551195052	-10.289444358614531
O	-7.0238569031040115	-17.17878785235121	-12.449135985653562
O	-5.945449525620905	-17.650010673683045	-13.426868330847132
O	-6.4156647166594185	-18.074258699525807	-14.752832818770806
O	-5.506664938275856	-18.951000687262503	-12.851736841205982
O	-4.773763817980531	-19.520900925894793	-13.832058502805346
O	-6.912738021970649	-19.506791291798326	-13.061483817182078
O	-6.6446995838807155	-20.92934842078901	-13.288828528087318
O	-5.570234399071388	-21.62454785832999	-13.9363663784693
O	-6.475619789764405	-21.021000472623264	-11.814846999569149
O	-7.119032231495203	-21.632790177915787	-10.998050784064276
O	-5.160388640074253	-20.658915937335188	-11.522632249892736
O	-4.695297307002909	-20.27677583867452	-10.232295059498204
O	-5.843851650310663	-19.961928999740568	-9.35586938561058
O	-5.435423608452155	-19.001557236400558	-8.320737740586576
O	-3.950058384282519	-18.79145691870349	-8.361283922322032
