30

O	-6.678835636211047	-16.7320502352251	-7.8893961268128745
O	-6.565250761893304	-18.43014845735903	-12.825147927187452
O	-5.97581930117603	-18.763163651997445	-14.153140905707547
O	-5.47191090832247	-20.093760175862087	-14.36062600762686
O	-4.289451385777396	-20.115433612322835	-13.48877687758577
O	-4.872516767646526	-19.783177727916403	-12.151553694702944
O	-5.558906050206013	-18.404725063597205	-11.928734493487271
O	-4.017672099894911	-18.9950526369911	-11.494171308233454
O	-3.4544238312759235	-17.82788084784868	-11.971298363605
O	-3.6127764053978715	-16.962229330671807	-10.754196188690994
O	-4.848562422369364	-16.98643587674369	-10.112805573310755
O	-5.2140027800927715	-18.347521181607693	-9.6206508469933
O	-4.171806845291442	-19.248949588684184	-10.130834158260493
O	-2.7172970917138652	-17.188296295269588	-9.97753062651031
O	-4.899626001719635	-20.632362835318617	-9.946712246024248
O	-3.0469352771454545	-20.206767593684866	-10.006491336026812
O	-5.530720079362022	-15.830146994932054	-10.204912407740064
O	-6.110149189725098	-15.429178374601731	-8.96223702288606
O	-6.55869432930058	-14.126445414345936	-8.827502341926106
O	-6.530121638018921	-13.265531543976767	-9.91847077377878
O	-6.2190321628782375	-13.859391862166046	-11.135572044922103
O	-6.215796853829604	-15.208138026351453	-11.26858054114329
O	-7.166719473377222	-19.52108233219773	-12.061532483168836
O	-7.7905921899616395	-19.477710798363887	-11.008674084220493
O	-6.790949877749259	-20.762459305993154	-12.697424488619873
O	-6.756414566582367	-21.977542923995255	-12.033456216104792
O	-7.823449870865798	-21.568691567090752	-10.940988467536794
O	-7.726667387423948	-22.72855320563054	-10.111794569258166
O	-6.379907958574961	-23.470885751365614	-10.13053756649484
O	-8.422724343230193	-23.8460138124071	-10.966363902348316
