86

O	-5.213453801928571	-4.536291508982143	0.9964115646785712
O	-4.052938301928572	-5.321614538982143	0.8871853446785711
O	-2.8009930119285715	-4.7096563389821435	1.0843706046785713
O	-2.7591877019285715	-3.4005438889821433	1.422449054678571
O	-3.9415226919285717	-2.929647898982143	1.9811526546785714
O	-5.109204351928572	-3.6868322489821432	2.116432444678571
O	-1.9963022219285715	-2.5497958489821433	0.6542853646785711
O	-2.7336964619285715	-1.815752708982143	-0.2664784633214288
O	-1.7360081069285715	-1.281854828982143	-1.0347960503214289
O	-0.5304361639285715	-1.981488068982143	-0.8339272823214288
O	-0.7716371429285716	-2.841029128982143	0.24907499367857122
O	-3.9902650619285716	-1.188394258982143	-0.12273574732142878
O	-3.8973563419285715	0.13945514421785707	0.36711283467857125
O	-2.7149583719285717	0.6964681160178571	-0.04196953632142886
O	-1.9566107969285715	0.09847985331785707	-1.1475442933214288
O	-0.15550226192857153	-2.178487548982143	2.5706309246785715
O	-0.7590895479285715	-3.113132338982143	3.4203397746785713
O	-1.6137939469285716	-2.7180038389821433	4.407040264678572
O	-2.183726363928572	-1.484492728982143	4.3813946046785714
O	-1.9622938779285715	-0.7074395559821429	3.2863366346785714
O	-1.0826474779285715	-1.151434648982143	2.2977515546785714
O	0.14310935807142844	-2.588983708982143	-1.9912200553214288
O	1.4184714080714285	-3.188447438982143	-2.0550228953214287
O	-0.5891672099285715	-3.1330845789821433	-2.9326112553214285
O	1.9871356780714282	-3.3660860589821433	-3.4433989553214293
O	2.4480259480714284	-1.928271068982143	-3.6673605553214292
O	3.6392592280714284	-1.6040520489821428	-2.926257495321429
O	3.170388448071429	-1.528972868982143	-1.5404359873214288
O	2.5749625580714284	-2.907530368982143	-1.2570027973214288
O	0.21100119807142836	-2.951395338982143	1.3178137246785713
O	-10.765968411928572	6.455285391017857	-2.395740755321429
O	-8.746016111928572	3.272481791017857	-1.558838474321429
O	-6.609793691928571	4.245645631017857	1.4559211946785713
O	-4.927166041928571	7.623206861017857	2.057637564678571
O	-3.1781588819285718	7.994277981017857	5.395114314678572
O	-1.3075838389285717	10.508739371017858	7.562519344678572
O	-2.0098026889285716	6.245540291017857	11.045163414678571
O	0.23795838807142844	5.311561651017857	8.11725962467857
O	0.012064258071428524	4.943810321017857	4.313389764678571
O	2.968446458071428	6.509150691017857	2.5198252446785716
O	3.995724858071428	4.075225131017857	-0.20270785532142882
O	6.319956338071428	4.521674841017857	-3.187798785321429
O	6.164156338071429	0.7576512570178571	-3.9808567453214287
O	8.064570958071428	-0.25756345898214295	-0.7972947053214288
O	10.939570158071428	0.9619682760178571	1.3695039346785711
O	-5.230895821928572	-7.770169468982143	12.443323214678571
O	-3.3881462119285715	-6.737886938982143	15.62751791467857
O	7.733323728071429	-10.194439028982142	4.087109914678571
O	5.999787848071429	-12.632712828982143	1.7480504946785713
O	2.4404955680714284	-11.483110728982142	1.084552324678571
O	0.1351049780714284	-13.390100728982143	-1.2924932863214287
O	3.6706720480714283	-14.227247028982143	5.637851734678572
O	4.0205024380714285	-11.100514928982141	7.722761034678571
O	-0.01928235192857164	-11.087782928982142	10.119742714678571
O	-6.629945961928572	-8.357098098982142	4.069191724678571
O	-4.8859470419285715	-6.566844418982143	6.924006804678571
O	-7.825806911928572	-6.439382088982143	9.316600324678571
O	-9.690681651928571	-4.200610858982143	6.850708154678571
O	-6.942244551928572	-1.566021518982143	6.9909261146785715
O	-4.460471741928572	2.657497671017857	8.815792324678572
O	-2.0243589469285714	1.116662971017857	11.36097041467857
O	1.0854650180714285	0.7743889240178571	9.248244894678571
O	3.289822878071428	1.8050587710178572	6.3834281646785715
O	6.122579318071429	4.205619901017857	5.622344604678571
O	7.981883718071428	3.114125591017857	2.4481188746785714
O	9.152910858071428	5.935835721017857	0.1282533126785712
O	10.990666158071429	3.599401921017857	-2.296711735321429
O	14.742236658071429	3.231072831017857	-2.695375295321429
O	5.043811118071428	1.5029511310178572	-11.507109985321428
O	3.9224261480714286	4.736179001017857	-9.790612415321428
O	2.7127751580714285	3.251443161017857	-6.4536847453214286
O	1.1233704980714285	5.678997971017857	-4.012303115321429
O	0.33483947807142833	2.6629721710178567	-1.8452174053214287
O	-1.9109543049285715	0.9866888750178571	-4.4941376553214285
O	-5.5927313119285715	1.6390796810178572	-4.4525425053214285
O	-6.182548381928571	1.221499701017857	-8.235651925321429
O	-4.7303346619285715	1.330190791017857	-11.69349118532143
O	-3.7286765919285716	-2.279240598982143	-12.165634385321429
O	-2.546184201928572	-4.401136648982143	-15.08528588532143
O	-3.0646195819285715	-7.919493918982143	-10.883474585321428
O	1.1526062280714284	-1.9574307289821429	-14.792184685321429
O	0.6735758880714284	0.005883266017857061	-11.56897958532143
O	-0.6306703859285716	3.5667981710178567	-11.449175585321429
O	-2.2475380679285717	3.810161551017857	-8.00187559532143
O	-4.711728811928571	6.156562051017857	-6.290767475321428
O	-7.043046321928571	6.153495641017857	-9.335883105321429
