97

O	1.3134316542580646	-2.37387015647742	2.7613653496354833
O	1.4280190942580644	-3.6894337164774202	3.1036031796354835
O	1.7404179242580646	-1.4050433764774197	3.5642590996354833
O	2.6626152342580647	-3.92061931647742	3.585435779635483
O	3.0286632342580644	-1.6805249564774198	3.821549459635483
O	3.617892994258064	-2.90223513647742	3.699293609635483
O	-1.1201324487419355	-3.6811611264774204	-2.0312858303645167
O	-1.5699304177419355	-4.42421605647742	-1.1993144793645167
O	0.04502286825806445	-3.16746776647742	-1.698191430364517
O	1.2104763142580643	-5.01704091647742	-1.853604840364517
O	2.4382485442580646	-4.128120756477419	-1.619248750364517
O	1.6784904842580648	-2.97023574647742	-1.0506058353645167
O	0.8918355542580644	-2.10567504647742	-1.7918820803645166
O	0.5534821242580644	-4.099834126477419	-2.8477909503645167
O	1.1734175142580643	-3.31668685647742	0.25169664763548316
O	0.9496321742580646	-4.65650014647742	0.20325526163548324
O	0.08527078325806448	-2.62925323647742	0.8908601296354831
O	-0.9948247457419355	-1.9073574264774196	0.5630933596354831
O	0.058398362258064496	-2.06565458647742	2.1827404396354835
O	-2.2067832657419357	-2.35101268647742	1.1908460796354832
O	-0.9380858757419355	-2.02936723647742	3.1005016096354834
O	-2.1418297557419357	-2.35284470647742	2.5508055196354835
O	2.6011145842580645	-3.25749272647742	0.6990216296354833
O	2.9523710842580644	-1.9000587964774198	0.5274902896354833
O	1.7333058842580646	-1.0372458964774198	0.32990960363548316
O	2.3122703542580645	0.25434439552258015	-0.05789213836451679
O	3.6809046342580642	0.18168925152258017	-0.004997304364516841
O	4.110446514258064	-0.6227426094774198	-1.0264974203645167
O	-2.4249833757419355	-2.20849571647742	-2.0066492503645166
O	-2.3351609557419355	-0.8137208364774198	-2.536437710364517
O	-0.8819872477419355	-0.7338860164774197	-2.7196292103645168
O	-0.6291911057419355	-2.02889428647742	-3.439054150364517
O	-1.7372570757419354	-2.87727370647742	-3.164338940364517
O	-2.8027250957419354	-1.0019725764774199	-3.8792188903645166
O	-0.7776884677419356	0.20835880652258015	-3.7343440603645166
O	4.676322874258064	10.63795477352258	6.4254547896354826
O	9.216023104258063	6.04508742352258	5.392710039635483
O	9.486021844258063	2.32298758352258	6.151081629635483
O	12.128685344258065	0.6348651465225801	3.982404549635483
O	11.296520044258065	2.72262400352258	0.8591429296354832
O	8.261490874258063	0.40466215792258015	0.5251739796354832
O	5.636010804258064	1.7821441335225803	3.0006190996354833
O	4.970499254258064	5.52330864352258	3.5917004396354835
O	2.3695691142580646	6.161488433522581	6.2562207496354825
O	0.7157828342580644	8.91123044352258	8.169785579635484
O	-1.0101328497419355	4.43500672352258	10.904773999635484
O	-2.3070815557419353	4.478287823522581	7.324614999635483
O	-1.0071534487419356	4.28566105352258	3.7573864196354836
O	-2.5513173857419353	6.94614717352258	1.5033452796354831
O	-3.3196902257419354	5.28895393352258	-1.7811195903645167
O	-4.338824505741935	6.680914603522581	-5.167363740364517
O	-5.081663855741936	3.16982954352258	-6.504631030364517
O	-8.082524865741936	2.62250432352258	-4.059139540364517
O	-10.986796255741936	4.54916846352258	-2.646706230364517
O	-2.8948415357419353	-9.860847926477419	10.861840999635485
O	-5.233245385741935	-8.414378826477419	13.511089799635483
O	-12.542241355741936	-7.09079366647742	-0.9148783333645167
O	-11.198527155741935	-9.89978642647742	-3.0998431103645165
O	-7.463415955741936	-10.21991042647742	-2.6510851903645167
O	-5.263582955741936	-12.669854226477419	-4.661942160364517
O	-10.823988155741937	-12.45629242647742	0.9838278596354831
O	-10.742065955741936	-9.500980126477419	3.3518966996354833
O	-7.872633465741936	-11.07757812647742	6.7161651996354825
O	0.8854296242580645	-10.36642722647742	3.2307351496354832
O	-1.0935520687419356	-8.33910964647742	5.805443889635483
O	0.8719396942580645	-9.35596801647742	8.902805429635483
O	4.000760004258064	-7.70062376647742	7.386680279635483
O	2.2538554442580647	-4.30045018647742	7.215689019635483
O	3.9580724142580643	-1.6620840264774197	9.406032799635483
O	0.8224535042580644	0.42667820272258017	8.994749259635483
O	-2.6665603057419354	-0.37432312747741986	10.380620399635484
O	-4.992964225741936	0.6484183415225802	7.589299419635483
O	-5.637429395741936	2.53536711352258	4.388099039635483
O	-7.0592717557419356	5.658798263522581	3.125423079635483
O	-8.024049575741936	5.509092803522581	-0.5277749647645168
O	-7.513312465741936	8.713240743522581	-2.5783428603645167
O	-9.106776275741936	7.27243190352258	-5.749015150364517
O	-12.458345555741936	8.20506546352258	-7.209754060364517
O	-1.4229383877419355	3.92511116352258	-13.164585000364516
O	-0.018654533741935486	6.50581828352258	-10.707642100364517
O	-0.41607967774193555	4.599962653522581	-7.492964630364517
O	0.9369998642580645	6.013872833522581	-4.272458660364517
O	0.1144211322580645	2.95240445352258	-2.5741818103645167
O	2.5499432542580647	0.7717748835225802	-4.7735713303645175
O	6.080533774258064	0.22098045552258017	-3.5124687303645166
O	7.671295334258064	-0.14122056447741987	-6.974332380364517
O	7.436944524258065	0.6293973725225801	-10.628702600364516
O	5.6716716642580645	-2.40493076647742	-12.012411500364516
O	4.895575204258064	-3.80630486647742	-15.455241300364516
O	2.880856344258065	-7.62459970647742	-12.090601900364517
O	2.1200632742580647	1.10704788852258	-12.255116600364516
O	4.287591274258064	4.026477243522581	-11.174476200364516
O	4.750595694258064	3.56360909352258	-7.448988230364517
O	7.099524644258064	4.83133783352258	-4.689359810364517
O	10.178127444258065	4.255178253522581	-6.883322380364517
O	13.786813444258064	-12.681184126477419	6.583593029635483
O	11.119267444258064	-10.027243426477419	7.3836152896354825
