110

O	-1.8290783113239437	-5.4562151111830985	2.7537335306591544
O	2.2253979686760568	-0.7118425811830988	2.8026970006591547
O	-1.5829840013239436	-4.709506911183098	3.888721260659155
O	-0.6067694013239435	-3.8960473611830992	4.323640950659155
O	1.0243542586760563	-0.8953981011830989	1.0495913906591547
O	-0.8809642263239437	-1.167903581183099	2.994044480659155
O	-0.9881801633239435	-2.581168881183099	4.491515350659155
O	2.7271126886760566	1.048634094816901	-1.0862794093408452
O	-1.6313148813239438	-2.379192031183099	3.0823694506591544
O	0.46769663467605643	-4.086419041183099	5.056112760659155
O	0.6569736956760563	0.6387106260169011	-0.7496291503408453
O	1.3021235586760564	-2.968348091183099	5.325288830659155
O	4.349824758676057	-1.7929734611830987	-1.0474889163408454
O	0.7801835286760563	-1.7087673711830988	5.568845900659155
O	1.0945868386760564	-3.5098663711830986	-0.6435030153408453
O	-0.6177923253239436	-1.7087834611830988	5.456630200659155
O	3.7025841086760565	-2.060169191183099	0.013750231859154735
O	4.344710038676056	-1.198338021183099	0.9268191316591547
O	3.6272889586760564	-0.9405301711830989	2.0124343706591548
O	3.1559402186760566	-1.8428034811830991	2.8082376206591544
O	3.2208530286760566	-3.012576911183099	1.9862568806591547
O	3.7642574886760567	-3.219905431183099	0.7814288266591547
O	3.3653596686760565	0.3170079918169011	-0.06686424724084526
O	2.0740468286760567	-0.5752231211830989	0.10941316165915474
O	0.8827463786760563	0.6087045725169011	1.1562052506591547
O	1.6810159786760563	0.9696998338169011	0.018619691359154728
O	4.203650868676057	-0.4956320711830988	-1.0102148653408451
O	3.2622375086760567	-1.1952387111830989	-2.738823669340845
O	2.921292698676057	-0.05346468818309891	-2.0059409793408456
O	1.7224522286760562	-0.6940047511830989	-2.103064359340845
O	0.9937004486760563	-1.8793856311830988	-2.006993459340845
O	1.7544694286760565	-2.893336901183099	-1.6864082893408452
O	2.7456752786760568	-2.582379431183099	-2.5682916693408453
O	0.5180872626760564	-3.450444671183099	0.5539222096591547
O	0.1792108786760564	-3.0455775811830987	1.7987389206591546
O	0.1684966296760564	-2.000209771183099	2.8086571906591544
O	3.6046178186760565	0.8798980748169011	2.9599677306591543
O	2.0992425686760567	0.6533945609169011	3.4573851706591547
O	3.3351585186760566	-0.6382127411830989	3.7174323706591546
O	-2.8008066113239436	11.9981230688169	7.763516900659155
O	-0.8541853763239435	9.5260873188169	9.896934110659155
O	2.5074117486760565	10.9263970688169	11.004298900659155
O	4.091955848676057	9.214864818816901	6.367344750659155
O	0.7480654886760563	7.626870778816901	5.5427061306591545
O	-2.2823982613239435	9.237047218816901	3.9963817706591547
O	-5.405004801323943	7.124499918816902	3.691596770659155
O	-9.037944881323943	7.122787108816901	2.6712461806591543
O	-11.881448501323943	4.621938928816901	3.108350320659155
O	-13.466212501323943	2.489369338816901	0.32085870165915475
O	-11.016438401323944	-0.644301071183099	4.187659320659155
O	-8.572351371323943	2.120543268816901	4.929948020659155
O	-6.564330281323944	2.522375388816901	1.7526295906591547
O	-3.5627307613239436	4.566705078816901	0.46130013065915476
O	-4.078654331323944	5.898318178816901	-3.0800799293408456
O	-0.7586016063239436	5.3397239988169005	-4.891566639340845
O	0.5894842246760563	6.5904319188169005	-8.224242899340846
O	3.6521757486760564	4.217277958816901	-7.992998329340845
O	1.5768378686760562	1.0319927058169012	-8.346919939340845
O	-1.4604687513239436	-0.17734416418309895	-10.370896799340844
O	-3.1704337113239434	-2.981822351183099	-8.488205019340844
O	-5.946624841323944	-3.022648781183099	-5.819217029340845
O	-4.682019461323944	-5.0606037311830985	-2.7232563393408453
O	-6.369564701323943	-5.969541531183099	0.4978249456591547
O	-5.761012681323943	-8.6631634611831	3.004623620659155
O	0.37070541567605636	-8.534199901183099	9.386948020659155
O	-3.017466831323943	-9.9467329311831	8.664620710659156
O	-4.034750641323944	-10.524928431183099	12.334855800659154
O	-9.682925681323944	-8.794745261183099	6.156449210659155
O	2.646919958676057	-12.514828531183099	-6.738426429340845
O	4.665524118676057	-9.448221031183099	-5.848688759340845
O	8.375473128676056	-9.496816731183099	-4.979411569340845
O	9.134999648676057	-7.243439011183099	-2.0267653593408452
O	12.596094798676056	-6.5945889011831	-0.5323032773408453
O	11.789865698676056	-8.4015602511831	2.8109781006591543
O	7.148137838676057	-12.269560931183099	-1.1980678193408452
O	3.5575045086760566	-11.1641620311831	-0.8867862803408453
O	1.0130252986760564	-13.3880416311831	-2.5652667693408455
O	-3.4591484813239433	-11.1047980311831	0.02503833985915474
O	0.8430279486760563	-14.1275649311831	2.3860517206591547
O	2.9086950286760564	-11.349384431183099	3.8432825006591544
O	7.926153468676057	-6.320197971183099	8.775762680659154
O	7.185720278676056	-3.639831671183099	7.569380150659155
O	3.5795216786760564	-4.767837351183099	7.144631100659155
O	2.3606282186760565	-4.971411941183099	10.792964400659155
O	3.0793559586760564	-1.197557691183099	11.237026800659155
O	0.5111480596760565	-0.03577527718309892	8.701792140659155
O	-2.2682563113239436	2.1230175388169013	9.823786060659154
O	-4.094897861323943	1.4831597398169012	6.564980300659155
O	-5.223895491323943	-1.9075819811830987	5.236315580659155
O	-4.804343331323944	-1.926395771183099	1.5931245506591547
O	-3.9190381913239434	-0.048086113183098966	-1.5933967193408454
O	-5.647788041323944	1.346213985816901	-4.652834009340845
O	-3.0907223213239434	1.7980019988169011	-7.519470799340845
O	-3.3955577413239433	4.849198118816901	-9.629592159340845
O	-0.5407892023239436	3.884262808816901	-12.030427799340845
O	-2.2140464313239434	-0.6065358511830989	-16.951850599340847
O	-0.4971159103239436	-3.873031201183099	-13.484782499340845
O	0.31631534867605643	-7.341634841183099	-12.091954199340845
O	-6.796812711323944	-0.4316194411830989	-12.806619899340845
O	8.900508758676057	9.3535706088169	-10.057758579340845
O	4.618489198676056	8.725710038816901	-6.163161789340845
O	1.6582316586760564	9.685031138816901	-3.9140361993408455
O	2.255521278676057	6.632851288816902	-2.0738113393408453
O	5.952334308676057	7.4918477088169	-1.0141165103408452
O	6.418462288676056	9.1491312788169	2.4124211506591546
O	10.975994398676056	9.8119615188169	-6.004964719340845
O	8.877163908676057	12.8389613688169	-5.090369539340845
O	6.596749088676057	11.6876869688169	-2.283646839340845
O	4.463210938676057	13.1654804688169	0.5361653986591547
O	6.467373858676057	2.289054518816901	16.882098500659154
