97

O	2.3352414288035717	2.408367084678571	1.0547844866428568
O	2.4825018188035717	2.6136151866785706	2.416374573642857
O	3.6298528788035713	1.7323483216785707	2.787988973642857
O	3.0600135888035713	0.6540149716785708	1.951625143642857
O	3.3444782588035715	0.5242252116785708	0.5199288286428569
O	3.298075828803572	1.9416376906785708	0.11774531864285698
O	1.6470707888035716	2.5477837796785705	3.494296813642857
O	1.6781617088035716	0.48752574167857077	2.4304836036428568
O	1.3921302088035716	3.976406451678571	4.320377853642857
O	-0.17167012119642822	4.494055021678571	4.535110683642857
O	2.4105733488035717	4.02141441167857	5.351279043642857
O	2.0302250388035716	5.06471024167857	3.4755275836428567
O	-1.0901810301964283	3.6845656616785707	5.0770105336428575
O	-2.4183430411964286	3.8055327316785705	4.667076223642857
O	-2.815048971196428	5.020337641678571	4.236526203642857
O	-1.9238797611964285	6.014157151678571	4.378085013642857
O	-0.6046997601964283	5.68243874167857	4.126903633642857
O	-3.9930533311964282	5.333184111678571	3.361017683642857
O	1.7944288388035718	4.578167857083315e-05	3.5489986736428567
O	0.8568239388035717	-0.2076859983214292	1.544413474642857
O	-0.0891394711964284	0.7750061816785707	1.170471479642857
O	-0.9491034061964283	1.204487806678571	1.9836192136428568
O	-2.407458131196428	-1.0600708383214292	2.335837773642857
O	-2.4817651011964283	1.2198702186785708	2.095929413642857
O	-3.2031421011964283	0.09080370167857077	2.287683703642857
O	-4.532355481196428	0.10271227167857067	2.755814183642857
O	-4.9615072011964285	1.353067726678571	3.210667153642857
O	-4.649466321196428	2.3211363996785708	2.264240833642857
O	-3.343458691196428	2.2704022366785708	1.7856140136428569
O	-1.1704331146964284	-0.9134916983214292	3.013217833642857
O	-0.7612506871964283	0.3978369716785708	3.2334957236428568
O	-1.0951701761964283	0.9676960426785708	4.368704373642857
O	-0.7242333901964283	0.31554366167857073	5.5326081236428575
O	-0.6579329791964283	-1.071431278321429	5.418696743642857
O	-0.8820917241964283	-1.6712387083214293	4.184455663642857
O	-0.8554223581964283	2.6466116946785707	2.080417103642857
O	-0.9296652731964283	3.3200335616785708	0.7928229456428569
O	-0.050660121196428376	4.436154011678571	1.119101678642857
O	-0.4103897711964283	5.865259171678571	0.986304789642857
O	-1.7709978361964285	6.005130651678571	1.138413023642857
O	-2.402964431196428	5.061157831678571	0.37853242864285697
O	-10.475884061196428	3.658153481678571	-7.687665886357143
O	-8.532658961196429	3.611460341678571	-4.357281876357143
O	-8.553523171196428	-0.04627448832142922	-3.281926666357143
O	-8.188376471196428	-3.085076578321429	-5.528593146357142
O	-8.516087171196428	-6.491919918321429	-3.8874395963571433
O	-6.4462539911964285	-8.75017346832143	0.24558625064285694
O	-4.626053791196428	-5.9358851783214295	-1.566413456357143
O	-1.5584884901964284	-7.120692138321429	-3.5261815463571433
O	1.1677408288035718	-4.5402930683214295	-2.732420726357143
O	4.538045238803571	-4.067920358321429	-4.4759476663571425
O	5.555400638803572	-1.5126232383214293	-1.7391501563571432
O	5.791261518803571	-4.21566100832143	0.962899431642857
O	6.8375341988035725	-7.81924593832143	1.429488281642857
O	-10.225774141196428	-2.173435028321429	13.018695243642858
O	-10.530060181196427	-5.84394557832143	14.006187043642857
O	5.2337979888035715	-2.5318892683214296	11.802747743642858
O	5.717135568803572	1.1305790956785708	12.564309943642858
O	2.852008318803572	3.080281051678571	11.129897143642857
O	2.8659157788035716	6.933719021678571	11.338762843642858
O	0.6072650488035716	-2.475950898321429	14.194668143642858
O	-3.948833021196428	-1.815341288321429	15.095252443642858
O	-7.068008011196428	4.368484121678571	8.997522103642858
O	-7.3987811211964285	0.6502463916785708	9.088055703642857
O	-11.109918591196427	0.6698828316785708	9.932981503642857
O	-11.869977551196428	2.2635438186785706	6.509231193642857
O	-10.228781551196429	-0.5912245083214294	4.655006373642857
O	-9.046921801196428	-7.59207603832143	5.253963423642857
O	-5.302332451196428	-7.78463757832143	4.728947843642858
O	-2.2345079381964283	-7.376518498321429	2.560710493642857
O	-0.03250442119642827	-9.71448336832143	0.4445542426428569
O	3.3724475088035715	-8.025219328321429	-0.14559604835714302
O	4.912091608803571	-8.516994668321429	-3.585517906357143
O	8.169813598803572	-6.700165848321429	-2.696454806357143
O	11.564472348803573	-8.37535096832143	-2.2237125563571434
O	12.386994048803572	-5.529968888321429	3.010158953642857
O	12.680449948803572	-2.6281173983214297	-4.212724286357143
O	9.835297948803571	6.4385872516785705	-8.897007056357143
O	8.430676708803572	3.6096908716785707	-6.703043306357142
O	5.901578778803572	1.4415432166785709	-8.567386846357143
O	3.5299775988035713	0.6737337616785708	-5.653203716357143
O	0.4034256288035716	-1.3282467283214294	-6.551640586357142
O	-0.8018043331964283	-0.8166877583214291	-3.032065426357143
O	-0.7870648461964282	2.932156031678571	-3.292727816357143
O	-4.081085521196428	4.6581721716785705	-4.313612846357143
O	-2.479590681196428	7.728903441678571	-5.905694566357143
O	0.4685854288035718	9.149008961678572	-7.700446876357143
O	2.4089941288035717	10.79713049167857	-4.9537982563571425
O	3.8931163688035713	12.57757393167857	0.4093501596428569
O	7.337881198803572	12.43560553167857	1.906811663642857
O	8.575587908803572	8.828883071678572	2.037499523642857
O	7.673447238803572	9.67296271167857	-6.157548156357143
O	5.157183368803572	6.780544571678571	-5.887041336357143
O	3.2333213188035717	5.634063171678571	-8.981981816357143
O	0.07084066880357165	4.106111891678571	-7.552133416357142
O	-3.381659081196428	3.128592451678571	-8.822973286357144
O	-3.7473571311964284	6.44640533167857	-10.703956056357143
