37

O	-0.9015415233174249	-15.31616427929167	-11.090804978916625
O	-0.5751434634021901	-16.461262786831384	-10.389367574778408
O	-0.07660724905474758	-17.4832566327385	-11.160030484563649
O	-0.9803195348207403	-18.62671136353337	-11.054967903919973
O	-1.4467326593725622	-19.085373727056734	-12.362048091972511
O	-2.7044587830523055	-18.993854779811624	-12.980813747817399
O	-4.000574193733701	-18.59863819805822	-12.87106966110399
O	-3.9656754340543383	-19.055276055198895	-11.6721935831918
O	-3.656789022133891	-18.70568027378479	-10.634467640605205
O	-3.3325813909260074	-17.617665531704354	-11.344077401429711
O	-3.731164845541275	-16.850252989219307	-12.116344344824817
O	-4.959220394935724	-17.609259222860537	-12.582273562029913
O	-5.699022100738098	-17.620084991739006	-11.20232959368008
O	-5.567125401292065	-16.769127446872975	-10.377227856652127
O	-6.352302635007503	-18.8358623144089	-11.08304426802746
O	-6.691294286513013	-19.860594749816407	-10.230216656603265
O	-7.361982641872592	-21.035861307950853	-10.75094638850538
O	-7.242004609872008	-22.45515282955507	-10.576822806274023
O	-8.75192878921576	-20.645064339510988	-10.940647252282336
O	-6.1420959147008904	-19.520967397779902	-12.26285968453568
O	-6.728563114667288	-20.70875966321177	-12.939965242059845
O	-6.274865832256115	-20.365448877167395	-14.318281196773768
O	-4.972089652396934	-20.6209549638261	-14.099511413104388
O	-4.732790642787298	-21.30122822065196	-12.806079951870222
O	-5.381591201014618	-20.64111924075467	-11.750335451764606
O	-3.825329269524632	-21.403642835518355	-11.722678927316435
O	-4.328802672705128	-21.8753892283451	-10.673471920888758
O	-2.4634962571296684	-21.432331035798196	-11.265337369502753
O	-1.6872320704118042	-21.84024240717503	-10.232581684850752
O	-0.2751728788379655	-21.431824411366012	-10.21700487912092
O	0.291458759899089	-21.474744236476493	-11.47285699090527
O	-0.4840638316135326	-22.336248421565017	-12.145812923472034
O	-1.90548057875644	-22.301319723361463	-12.362925423082755
O	-3.5865109437311062	-19.185042998758707	-9.326033186335124
O	-4.045666260564202	-20.471774940551143	-8.637896395743116
O	-4.498166748014629	-18.67883599314859	-8.380513861534732
O	-2.2864548125212107	-19.224746332158002	-8.748538753537817
