86

O	-2.6656408311428574	-4.223181195677778	6.805055837285714
O	-1.8848609751428573	-3.956367385677778	5.533513077285715
O	-0.6250028621428573	-4.576961415677778	5.439511697285715
O	0.41757501885714265	-3.6330523056777784	5.678781617285715
O	0.23944972885714277	-2.652004945677778	4.709449647285714
O	1.3309842688571427	-2.2628397456777782	3.8246963672857146
O	2.5511263088571425	-2.2896850756777782	3.9289668072857147
O	1.0299096588571426	-2.126596845677778	2.4592812072857146
O	1.5314803088571427	-3.1583414356777784	1.6436000972857148
O	0.37702862885714283	-3.883874135677778	1.0351262612857148
O	-0.7230379761428573	-2.8734205556777783	1.0087952902857147
O	-0.0820220481428573	-1.8547670756777783	0.21864675728571467
O	0.49411436885714266	-0.6570036536777784	0.7167758142857147
O	0.7391764088571428	-0.7997498956777783	2.155911587285715
O	-1.0742978401428573	-2.3310557156777785	4.259878847285714
O	-1.0085504349428573	-0.8926048856777785	4.247156147285715
O	-0.8761906909428573	-0.3263269666777784	5.3556469972857155
O	0.16895208885714263	-0.08065294567777845	6.405181837285715
O	1.0565671488571429	0.7952866263222216	6.372894797285715
O	2.3441971988571426	0.22075016282222157	5.901805707285714
O	2.2222920688571426	-0.9146826756777785	6.701168947285714
O	0.8896558688571427	-0.9582277156777784	7.171371557285715
O	-2.019328951142857	-2.689152015677778	5.206014047285715
O	-2.212617081142857	9.894976914322221	-5.507884412714285
O	-1.0092155941428573	11.150671124322221	-2.1270294527142855
O	2.4481653588571426	10.019705994322221	-0.9555997327142853
O	2.663386998857143	9.113655234322222	2.7366393572857146
O	6.296183658857142	8.723699014322222	3.8397980872857147
O	7.414414898857142	7.008717044322221	0.5468185882857146
O	5.717187528857143	3.9517777443222215	1.8344508772857147
O	1.9339993588571427	4.358966284322221	1.0741783222857146
O	0.43553314885714267	5.900785124322222	-1.9674152627142854
O	-3.3354758511428573	6.4661814343222215	-2.0512169427142855
O	-6.160590501142857	7.8593187643222215	-4.077160022714285
O	-9.799039881142857	8.545496584322223	-3.256024902714285
O	-8.658360461142857	6.572694214322222	0.7247011112857147
O	-7.442785221142858	3.489651394322222	-1.0891867727142854
O	-4.157251221142857	1.9928554243222214	-2.245990442714285
O	-4.1868050711428575	0.5934538023222216	-5.790068172714285
O	-2.4085846511428572	-2.7980030856777782	-5.580048832714285
O	-1.1544226821428571	-5.040558335677778	-8.408424522714286
O	-0.3814825491428573	-7.901370185677779	-5.960553452714285
O	-4.060987561142857	-8.538652495677779	-5.057160902714285
O	-7.451751891142857	-8.595111375677778	-6.807650632714285
O	-11.857923131142858	-0.04347056767777843	12.373739057285714
O	-10.838020981142858	4.655730914322222	9.637229447285714
O	-8.101776441142857	-13.339743475677778	4.022173757285715
O	-5.325942991142857	-15.131173875677778	5.840951107285715
O	-2.791443791142857	-12.702621375677777	7.029122577285715
O	0.47032349885714264	-13.527486175677778	8.842112327285713
O	-9.091494981142857	-10.443875575677778	8.281147387285715
O	-0.7863638771428573	-3.7270552056777784	11.539613457285714
O	-4.150334781142857	-2.222719195677778	10.263129507285715
O	-4.426842991142857	0.5870750673222216	12.683913257285715
O	-1.3372041811428572	2.3072386043222215	11.258226957285714
O	-2.9018673811428575	2.6328569443222216	7.803886537285715
O	-3.1284672611428572	6.081852074322222	6.492795277285715
O	-5.523587011142857	4.7846200843222215	3.868248477285715
O	-8.886593021142858	3.0773796043222217	4.479570827285714
O	-8.937297391142858	0.25531138302222156	2.0279493372857145
O	-7.547454571142858	-1.4846520356777786	-1.0158146727142854
O	-8.452367241142857	-1.8032168756777784	-4.698956832714286
O	-6.756668371142857	-4.901305175677778	-6.177704302714286
O	-5.4856719911428575	-4.516895445677778	-9.796971442714286
O	-4.420702201142857	-8.185339565677777	-10.118994942714286
O	9.734577568857143	10.960639724322222	-4.090647842714285
O	8.343995728857143	12.552087424322222	-0.9046236127142853
O	2.5769121688571426	12.34314672432222	-4.886655282714285
O	5.714544958857142	-6.0392410456777785	-9.632101522714287
O	3.5551846988571425	-5.011172115677779	-6.671288152714286
O	2.3498765288571426	-1.3959237756777785	-6.520416732714285
O	1.0226766488571428	-2.1436485356777784	-3.1468074227142853
O	4.503073438857142	-3.0677206256777785	-1.6477186427142854
O	6.442601148857142	-0.27823372767777843	0.05652093528571467
O	9.844115568857143	-1.7753978056777786	-0.5685529197142853
O	11.970638968857143	-3.917531685677778	-2.796729462714285
O	11.831749868857143	-7.222037275677779	-0.9775037627142853
O	10.459698868857142	-11.221255575677779	3.0098494572857146
O	8.921117328857143	-8.055578165677778	-4.947317522714286
O	9.570108868857142	-4.7492930656777785	-6.728717792714285
O	7.568011418857143	-2.2173991656777785	-4.733299192714286
O	7.423877358857142	1.5727825243222215	-4.288462522714285
O	11.251115368857143	1.7770937243222216	-4.013244502714285
O	11.611071068857143	0.40272642632222155	-7.595107302714286
O	4.479358718857142	5.418985244322221	14.643747057285713
O	6.613894058857142	6.9455500243222215	11.928537757285714
