109

O	0.03137636754137929	0.011942217224137575	1.6344170508948273
O	3.0169770335413792	-0.7032824647758624	4.171594686894827
O	2.4217769935413793	-2.8216988037758624	1.5469439628948272
O	-1.919545976458621	-2.2482112437758626	2.9909687368948275
O	0.18583835954137928	1.3679095562241375	1.2861889628948273
O	3.1423995035413794	0.4326566462241376	3.3033137868948277
O	3.378122573541379	-2.7734085537758624	0.3558482958948273
O	-1.1275892764586208	-3.4048273237758626	3.4474139868948273
O	1.5995481735413792	-1.5627761437758625	1.3247025508948274
O	3.047633363541379	-2.1145277237758626	2.5431123668948272
O	2.2157049335413794	-0.7291577087758625	0.5842360438948273
O	4.385170403541379	-1.2667555837758624	4.460005426894828
O	-1.2354696564586207	-2.0040488737758624	1.6957360808948274
O	1.4344942235413791	1.9599004762241374	1.6376359208948275
O	4.365995113541379	0.3864406602241376	2.5442117568948275
O	2.2993620835413795	-2.6532296037758623	-0.7181629031051726
O	-1.2309359864586207	1.2692869862241376	3.987413706894827
O	-0.0977625544586207	-4.009931803775863	2.6869068568948276
O	2.2289198735413795	-3.7352257737758627	-1.3541808631051728
O	2.290168223541379	2.0330306662241378	0.4518949208948273
O	5.1300754235413795	-0.4683115377758624	1.8093320668948274
O	0.8012436085413792	-2.3739661637758624	-0.6708283931051726
O	0.08394001954137928	1.0220398192241376	4.5602779668948275
O	-0.6268246714586208	-3.0599778637758623	4.804535976894828
O	0.27979342294137927	-3.6964860237758623	-0.5114264031051727
O	3.518951973541379	2.7245329462241377	0.29417704289482727
O	5.700496113541379	0.1209794312241376	0.6710837674948273
O	0.8790157545413793	-4.251128733775863	-1.4896219031051727
O	0.7575870745413793	2.3255600562241376	4.711965756894828
O	3.644637953541379	3.8790287462241375	1.2051548138948274
O	6.468647883541379	1.2487120662241376	0.9393197028948272
O	-0.27108550745862076	3.4482340762241375	4.578997046894827
O	2.752988793541379	3.6310417662241377	2.3804384168948274
O	6.203820093541379	1.9204910962241375	2.1005813168948273
O	1.3570273835413793	3.4309165562241377	1.7924885568948272
O	5.186721413541379	1.4599804762241375	2.935203326894827
O	-1.2262167964586208	-0.5775484117758625	1.3793063038948272
O	2.2903469735413795	-1.8878650837758624	3.7397602868948274
O	6.691303853541379	-3.1708522937758623	3.6011394768948275
O	7.588662323541379	-3.2392678437758624	2.461444296894827
O	7.565494403541379	-2.6244087637758624	4.686569776894827
O	6.836083593541379	-4.658962243775862	4.069531416894828
O	-1.4806686164586207	-1.0560836837758625	3.7318133168948275
O	0.8272132095413793	-0.9308344237758626	2.250643316894827
O	-1.9554717864586206	0.18835425942413758	3.3242506368948277
O	-1.6204026764586208	-0.40444520977586246	0.07612564689482726
O	2.2746766135413794	-2.8386136937758626	4.528910886894828
O	4.970714003541379	-3.1783415137758624	5.369874946894828
O	4.271294833541379	-3.9630892337758628	3.767254616894827
O	-0.6131531484586208	-1.0258259337758624	4.626927886894827
O	5.0445528135413795	-2.7238704337758626	3.8163186568948273
O	6.5758016535413795	3.1565520662241378	-11.372969123105172
O	6.341538683541379	2.5402487462241377	-7.511803363105173
O	4.471176693541379	5.5842508962241375	-6.234961873105172
O	1.5172351835413793	7.351880186224138	-7.926510623105173
O	-1.1122037964586207	11.607743686224138	-1.2934864731051727
O	-1.3101822664586207	8.053536296224138	-2.5931273931051724
O	-4.901337606458621	6.803090596224138	-3.110161713105173
O	-4.791215536458621	3.2557774062241376	-1.4738457831051728
O	-7.495943226458621	0.5392907422241375	-1.8656243031051727
O	-5.680522146458621	-1.6070989337758625	0.7742715259948273
O	-6.634616886458621	0.8231270742241377	3.573293786894827
O	-9.44353918645862	3.1217857762241374	4.750990566894828
O	10.18869468354138	11.056572886224137	8.224507716894827
O	8.447761753541378	14.237699786224137	9.427667576894828
O	-1.1802899664586208	1.5665078862241375	13.231107576894827
O	1.0084870185413792	-1.4681095637758625	13.604479276894828
O	3.5724378435413793	-1.3349840237758626	10.922017476894828
O	5.8870332735413795	-4.346972763775862	10.936659576894828
O	3.0558191935413794	4.749400686224138	13.627543676894827
O	6.881711803541379	7.264641896224138	12.526005776894827
O	10.76092076354138	3.4471583562241377	4.898130326894828
O	8.64538670354138	6.579673686224138	5.399348826894827
O	11.48323846354138	8.955388766224138	4.703090346894827
O	11.73170506354138	7.626934036224138	1.0883873638948272
O	8.08208938354138	8.335364636224137	0.3850001448948273
O	3.149007913541379	13.155174986224138	2.1791306168948275
O	0.2986449088413793	10.854662486224138	3.1819902168948273
O	-2.4448269564586207	8.512974936224138	2.234116026894827
O	-6.140495306458621	8.571763656224137	1.3904941058948272
O	-7.671270296458621	5.112254396224137	2.0082138568948276
O	-10.26087863645862	3.9254644262241376	-0.5237969631051727
O	-11.073272736458621	0.6846850212241375	1.3708513998948273
O	-14.278936536458621	-0.04871747777586238	3.290148036894827
O	-11.21829043645862	-1.8002030737758625	8.133384016894826
O	-12.09469503645862	-5.526743343775863	1.4303586098948273
O	-6.2344296264586205	-11.572635913775862	-4.918599663105172
O	-6.176677416458621	-8.151883423775862	-3.1403905331051725
O	-6.475572326458621	-5.252162083775862	-5.610326903105173
O	-4.1809307064586205	-2.7246764137758626	-3.7308064431051724
O	-3.744027596458621	0.5642407002241376	-5.690612713105173
O	-1.3488644464586208	1.5351706562241376	-3.0940860631051725
O	1.0127005315413793	-1.2859045837758625	-3.693693993105173
O	3.9220572935413793	-0.9446537937758626	-6.107405783105173
O	4.095423683541379	-4.566207103775862	-7.258729793105172
O	2.3100707835413794	-7.791825343775862	-7.940696793105172
O	3.091903193541379	-9.795659713775862	-4.8586062231051725
O	2.602562923541379	-13.348952213775862	-3.6294265031051722
O	3.482442513541379	-15.712160313775863	-0.7630115331051728
O	7.435906973541379	-11.971919013775862	-2.4717865331051723
O	5.264363403541379	-11.003025513775862	0.4922902578948273
O	3.2776747435413793	-12.760624213775863	3.2068449768948275
O	0.2359467438413793	-10.662824613775863	4.242798246894827
O	-1.7038006164586208	-12.285304313775862	-3.629464943105172
O	-1.7051248364586207	-8.510556163775863	-4.1419269331051725
O	-2.2479435064586206	-6.944816073775862	-7.561874393105173
O	-0.47371853345862075	-3.5913683537758625	-7.279431713105173
O	0.7782587365413793	-0.9604519737758626	-9.805038423105172
O	2.415603663541379	-3.6025770437758626	-12.000918423105173
