43

O	-10.55384202569817	-9.849955165829549	-6.906070549549064
O	-9.982620873886985	-16.706441446422254	-8.19708576089118
O	-9.496602852551689	-10.672006210658797	-6.530601348512282
O	-8.315400864756725	-11.072475529039693	-7.04254496266983
O	-6.88824194062163	-17.500760431960707	-13.559461748450033
O	-9.540291736733922	-11.2096358394861	-10.070680685788883
O	-8.25921660173191	-11.132378255544857	-8.342277921333267
O	-6.268772478788162	-16.38147596489029	-11.464322212219868
O	-7.938328822718814	-18.85866416133223	-11.01350890165218
O	-9.678638090346768	-10.78760325106041	-8.831272683410168
O	-9.585125361280921	-19.46049028497243	-10.43560177984899
O	-7.006789358048841	-11.179872438264521	-6.7035413844184895
O	-4.503824674865395	-17.799188655332927	-11.471966417655757
O	-6.111528466069379	-12.066794535966133	-7.381691047390733
O	-9.816859032262414	-14.887292703237241	-10.749894120069506
O	-5.877441007498742	-11.567828895077596	-8.698461597075099
O	-7.905392427122964	-15.117520536710183	-8.605761203370927
O	-7.053144337215381	-10.686841893368163	-8.963941276617906
O	-10.594527041225787	-14.237361176922686	-9.839382899283326
O	-11.220385041358448	-14.40778849110123	-8.758344055104118
O	-10.689441419311633	-15.45792157723423	-8.031133985383887
O	-10.07159932572361	-14.319240498720612	-7.2208795572399085
O	-10.65516782423282	-13.054797326728847	-7.4288244711405005
O	-10.84084851136978	-13.158504556100926	-8.866733997520207
O	-9.707565508120972	-16.51157222575783	-6.871390252013886
O	-9.457059268271003	-15.202068959268342	-6.374595416742526
O	-9.719534907604517	-17.476422237386657	-9.261674525171493
O	-8.86278726908939	-18.42611572067713	-10.10996361845986
O	-6.981787799528172	-19.722464157150412	-10.863815066317413
O	-7.4895379796108035	-15.754618003290684	-11.746396027529736
O	-7.440063161951288	-16.237858340020324	-13.209910629624659
O	-5.625265283956715	-17.78283455972832	-13.301382912154992
O	-5.2239126654024215	-16.922991205303408	-12.131344922063448
O	-8.798373752594122	-15.599780437388166	-11.308830946555556
O	-4.91028164352148	-15.31396752446511	-9.278471236915617
O	-5.488526469926964	-16.10109630344796	-10.212266454309958
O	-5.636448683331981	-17.30888594989545	-9.399543983089792
O	-6.544440253180164	-17.19197525591657	-8.244028975312483
O	-6.983158148297347	-15.940398651324596	-8.219585445064869
O	-5.750670515453443	-15.259084200018108	-8.045115968682584
O	-8.139012992880115	-13.87649082625564	-8.634374388347304
O	-8.09094506708298	-12.929618028741116	-9.589140121105155
O	-8.338697264157775	-11.91867645943831	-10.476077332343387
