33

O	-5.073251580821402	-16.86661720200439	-12.481932093498163
O	-4.131509280339172	-17.661837531153626	-12.77263917434987
O	-3.114442474691623	-12.117957873226306	-13.597520295037484
O	-3.020179911029105	-17.41564070976615	-11.819232919840978
O	-3.641038999029227	-17.95021046750136	-10.617797804094383
O	-4.95308767664334	-17.80523942119822	-10.416077672801844
O	-6.128510304904836	-16.057262452702172	-12.519309758456444
O	-5.1207066870649935	-16.481702514041693	-11.112516833580269
O	-1.8476118116150912	-17.798300907247953	-12.063658925955687
O	-5.853254592113143	-19.029203671627094	-10.782615955767124
O	-2.68166557699836	-12.602965264465285	-11.532018442328987
O	-5.030233110305288	-20.19524394081272	-10.390366947072845
O	-4.0281905383502625	-15.370104851029058	-9.252049974415105
O	-4.096721419529044	-14.097237117229765	-8.665528734568342
O	-3.6768572920772122	-13.097548993001373	-9.433135352139226
O	-3.5945251498540656	-13.42338487827605	-10.805702770920622
O	-3.745024436383835	-14.80051028882674	-11.16355105619898
O	-4.679591031108591	-15.43527184922531	-10.398810507184018
O	-3.0635023037436744	-11.81247467166557	-9.226036340996423
O	-1.652523574387844	-12.52842430466372	-9.19530246809451
O	-1.4622255479658866	-12.424961749546082	-10.720634002824967
O	-2.1408293706506427	-13.667460195969067	-12.42860795975749
O	-3.4299313626096857	-14.302202863626713	-13.011176105813199
O	-3.9865953390018136	-13.11536912089679	-13.687404612729805
O	-1.9743284240091858	-12.434385107110387	-14.370242103261406
O	-6.394449490297466	-14.914681248632377	-11.768235802268885
O	-6.551447426890666	-13.583310181111981	-12.082080221245098
O	-5.894170136159085	-10.269404573330965	-9.4820534835441
O	-6.409445396320939	-11.462447396295108	-9.059575450062285
O	-6.688684575687629	-12.409855400813374	-9.996396065808302
O	-6.201482014306471	-12.427407045822788	-11.273535682167658
O	-5.6032941341888955	-11.22505297419623	-11.573661083220568
O	-5.434190203119503	-10.160047748191019	-10.767916032903678
