88

O	3.8974022296684216	-2.2647557886298246	-0.8073009680701752
O	3.2482266296684212	-1.6713880086298245	-2.0266985280701753
O	2.373373749668421	-0.6403268826298246	-1.561413818070175
O	3.1033946096684213	0.20793717437017545	-0.6481962840701752
O	3.0386089196684214	-0.3944464666298246	0.4300551329298248
O	3.249198339668421	-1.8654214486298244	0.521754792929825
O	4.321540749668421	-1.7751858286298245	1.5220460529298248
O	2.3376039596684213	-2.8561133686298246	1.013828992929825
O	3.402828639668421	1.5641501913701754	-0.9565873710701751
O	0.910240769668421	-0.33633064462982454	-1.5834316970701752
O	2.9333293496684214	-2.131847018629825	-3.1302611670701754
O	2.339247569668421	-4.288212238629824	0.45442311292982485
O	1.2186917696684212	-3.0838071386298247	1.922855792929825
O	0.1570276496684212	-1.4611624786298245	-0.8112089770701751
O	0.7657064596684212	-2.3996676986298247	-1.6185918730701752
O	0.41946920966842105	-3.670901318629825	-1.8492540930701753
O	-0.5401683473315788	-3.9968370986298245	-0.8962969260701752
O	-1.0199773373315788	-3.3024405886298247	0.15077856292982483
O	-0.9928240529315788	-1.9850736886298246	-0.21708552307017515
O	0.2791767496684211	-3.7878415986298246	-3.346896687070175
O	0.3858275796684211	-4.774304788629824	-4.043138537070175
O	-0.8703906923315788	-2.866505678629825	-3.5768177570701756
O	-2.077173670331579	-3.180187178629825	-4.294365487070175
O	-2.9878179803315787	-3.5452012086298246	-3.2042806870701748
O	-2.562607010331579	-4.783500398629824	-2.724111217070175
O	-3.0973164703315788	-5.368159448629824	-1.5739880050701751
O	-4.024743750331579	-4.658796298629825	-0.8708786850701751
O	-3.976717760331579	-3.3066461586298246	-0.9941507530701752
O	-3.402408770331579	-2.7858035486298247	-2.1547197270701752
O	-1.418755674331579	-4.2698629086298245	-5.029092207070176
O	-1.673816336331579	-4.040110678629825	1.049985222929825
O	-10.62160554033158	3.7998654913701753	-6.753138317070175
O	-7.985701560331579	1.3541929413701754	-5.690630877070175
O	-8.33793832033158	0.9449501313701755	-1.9172002790701752
O	-9.06193790033158	3.7432476513701753	0.5213444529298248
O	-9.53411909033158	2.706221671370175	4.139094542929825
O	-10.40135898033158	4.026868331370176	7.584928302929825
O	-6.881189080331579	-0.13814233672982457	7.481991002929824
O	-5.147141550331579	1.5843775913701754	4.578399352929825
O	-2.955519980331579	4.535993481370176	5.638837272929825
O	0.2881081896684211	4.198868431370176	3.652186142929825
O	3.161438729668421	6.606151931370175	3.096931422929825
O	5.311086739668421	3.8902122513701753	1.410544402929825
O	5.7234685496684214	1.8978075013701754	4.6725583429298245
O	6.188221739668421	2.4097885313701752	8.400469052929825
O	-6.060222290331579	-14.435889858629825	3.768022262929825
O	-6.710116890331578	-14.713629458629825	7.506304952929824
O	8.39073904966842	-8.858857248629825	5.306190372929825
O	9.48943864966842	-10.104478258629824	1.890423992929825
O	6.671577609668422	-9.719649018629823	-0.6056842230701751
O	7.072327219668422	-10.566469058629824	-4.301840687070175
O	6.831692599668421	-14.023191858629824	2.793570322929825
O	4.531910129668422	-12.398408858629825	5.328597412929825
O	0.5072523496684213	-14.682245458629824	4.580926122929824
O	-2.795242050331579	-10.804627158629824	-3.1469613170701756
O	-3.856932210331579	-10.442942058629825	0.4211001229298248
O	-7.1517363503315785	-12.364798058629825	0.2257960429298249
O	-8.47978210033158	-9.686399588629824	-2.1242300270701753
O	-7.9487075203315785	-6.894313098629825	0.3027857529298248
O	-9.23506207033158	-3.810883808629825	4.244583322929825
O	-7.852916120331579	-5.786410718629824	7.232527232929824
O	-4.476329790331579	-4.181568898629824	7.742371672929824
O	-2.0548424303315787	-1.3681844686298246	7.096813032929825
O	-0.8938617799315789	1.6552049113701754	9.155483122929825
O	2.460448309668421	2.9211215213701753	7.827373692929825
O	2.9641991496684215	6.716069301370176	7.6887676029298255
O	6.593591889668422	6.453222511370176	6.4781981129298245
O	9.69844734966842	7.2525983513701755	8.509890222929824
O	12.282099049668421	2.0435929513701754	7.123863582929825
O	8.92647201966842	10.101480041370175	-7.536580537070176
O	7.640895219668422	8.186897831370176	-4.445908897070175
O	4.392954759668421	9.677221021370176	-3.070843257070175
O	2.7031638696684213	6.4260575413701755	-1.8895011700701752
O	-0.8244322058315788	6.837527981370176	-0.49524788807017517
O	-1.0236206263315788	3.1803125613701755	-0.26482642207017515
O	-0.3960018323315788	2.4144632613701753	-4.023196297070175
O	-3.468718260331579	2.287135441370175	-6.162923947070175
O	-1.8622539413315788	3.590413101370175	-9.397666467070175
O	0.7240504696684212	5.834613721370176	-10.922232517070176
O	3.5336862396684214	3.4388774313701753	-11.625304077070176
O	6.817134639668422	3.5555391613701754	-13.526166977070176
O	6.479277209668421	-1.6299189086298245	-11.773802577070175
O	8.09418257966842	6.278426791370176	-10.262374267070175
O	5.264248179668421	5.9935315013701755	-7.717775887070175
O	2.4453539196684213	8.528039601370176	-7.5109570770701755
O	-0.4443062273315789	6.535481251370176	-6.031197737070175
O	-4.228337940331579	7.005502771370176	-5.754330357070176
O	-4.497531770331579	7.9991316813701765	-9.450351167070176
