93

O	-3.803919275304688	0.6695608790156247	-3.453769801875
O	-4.262924005304688	-0.5235640779843754	-3.642902581875
O	-3.777152045304688	-1.952574607984375	0.1827677581249998
O	-1.048287031304688	-1.3777844879843753	-3.880665971875
O	-4.813428975304688	-1.1670314079843753	-2.6307162718750003
O	-5.227419805304688	-0.5016531079843752	-1.577982808875
O	-4.487194245304687	0.5316215894156247	-1.2786116922950002
O	-3.0231137453046877	1.1896172710156248	-4.537607541875
O	-3.618168465304688	1.0121534760156248	-2.146331097875
O	-5.563904085304688	-2.3069843679843753	-2.8965973018750004
O	-0.17755611530468784	-2.515215037984375	-1.2318403690750002
O	-4.612125475304688	1.2881730290156246	-0.053143921875000055
O	-1.3882572723046878	-0.8755458879843753	-0.9637193478750001
O	-5.944290835304688	0.9081720540156246	0.4784545081249998
O	-1.9063998869046879	-2.928344647984375	0.21267792812499975
O	-1.4137804853046878	1.8969148720156248	-2.952894191875
O	-0.4661147453046879	1.3944308260156246	-3.803011531875
O	-0.3997474153046878	0.15107906301562468	-3.0856405718750004
O	-0.7580292253046879	0.21831168801562467	-1.7087924928750002
O	-1.5749621303046877	1.2317792700156247	-1.1477967778750002
O	-2.400718793304688	1.8640177920156247	-2.018398483875
O	-3.2873798253046878	-3.077234527984375	0.21849095812499986
O	-1.8372630185766878	-2.387671067984375	-2.6822044318750002
O	-1.3077184353046878	-2.1263318779843754	-1.5294685308750002
O	-2.048146693304688	-0.7642146179843753	0.28692678812499994
O	-1.5110151443046878	-1.8599998679843752	1.0910771481249997
O	-3.9412729553046875	-4.042146547984376	-0.6439042908750001
O	-1.2834831873046877	-3.815243877984375	-3.126264131875
O	-2.724881534304688	-3.5225653479843753	-3.176182221875
O	11.769340694695313	3.7329749220156248	2.019563958125
O	10.811908294695312	0.37892711501562465	-3.4978549618750003
O	8.459904994695313	0.7249558520156246	-6.471456181875
O	8.243091794695312	-2.511961907984375	-8.466742281875
O	8.295355694695312	-4.744432637984375	-5.3362915018749995
O	4.598292354695312	-3.5654302879843756	-4.9333754218750006
O	4.704761024695312	-0.1817122459843753	-3.222228361875
O	7.261300814695312	0.8888052850156247	-0.5326366848750002
O	7.002545224695313	4.518041172015624	0.4787057481249999
O	8.622733394695311	7.112450462015624	2.6681437681249998
O	8.271169394695312	10.881845832015625	2.8385909281249995
O	5.073384704695312	10.101490792015625	-0.3263851078750002
O	3.260682834695312	7.721841372015624	1.9694192081249997
O	2.910632664695312	3.9685784120156247	2.4243614881249997
O	3.2158037546953118	2.8962722920156247	6.076289588125
O	0.4932645746953124	0.30962903201562464	6.585272308124999
O	-0.21691744530468782	-2.1047416179843754	9.401473148125
O	-3.666622535304688	-3.054263527984375	8.081020768125
O	-5.186357215304688	0.42999803501562467	8.878122548125
O	-4.980614595304687	3.2186806220156248	11.436520748125
O	-6.465067315304688	10.416437822015626	-8.805578211875
O	-6.061945915304688	13.906835532015625	-7.356766561875
O	-0.5616855953046878	13.624579432015626	-6.903074261875
O	-14.061476505304688	4.987313802015624	3.826024788125
O	-15.855909205304688	2.285816332015625	1.8599372381249997
O	-13.730173705304688	0.9692853920156246	-0.9115205688750001
O	-14.679298805304688	-1.9291300679843753	-3.237623541875
O	-13.316585805304689	7.7297938020156245	-0.6620257268750002
O	-6.878259965304688	2.055156352015625	-8.724072881875
O	-5.739503355304688	5.277104872015625	-6.959106301875
O	-4.356800765304688	6.909106782015624	-10.032538401875
O	-1.7530572545046879	4.118917492015624	-10.322133011875
O	-0.4011000053046878	4.820086282015624	-6.865949051875001
O	3.1668212546953116	5.994493692015625	-6.901686941875001
O	2.663614674695312	7.353356092015624	-3.412608611875
O	0.41413104469531237	10.302362982015625	-2.318697701875
O	-1.0951436343046876	9.089962272015626	0.9435337381249997
O	-1.278345583304688	6.405545492015625	3.640486428125
O	-0.05279384530468789	6.468428772015624	7.364472818125
O	-1.8952626016046878	3.6659361920156246	9.232874748125
O	0.1928799846953122	1.7506767420156248	11.835119948125
O	-2.761236558304688	-0.3313234949843753	13.103680648125
O	-4.546709165304688	0.006825367015624639	16.430354348125
O	14.236934694695313	-6.840523027984376	-3.332406551875
O	-3.018873095304688	-10.554610867984374	8.772494148125
O	0.4951658146953124	-9.035238087984375	8.697597498125
O	-0.09645341530468787	-6.107286007984376	6.469202628125
O	2.8599450046953123	-3.9414508379843753	5.410486018124999
O	0.6951303046953121	-2.0903364679843754	3.135932298125
O	-0.1341380553046878	-5.320861217984375	1.1307230581249996
O	2.100629164695312	-6.038390727984376	-1.9627440488750003
O	1.460431094695312	-9.804112267984374	-1.9766038438750002
O	0.7698243046953122	-12.842179467984375	0.06472413812499989
O	-2.9455537953046877	-13.305281967984374	-0.3364333948750001
O	-5.449490025304688	-16.042610967984373	0.5234256381249998
O	-8.521719475304687	-12.223105667984374	-2.0153190698750003
O	-2.601222390304688	-11.620455967984375	4.329797708125
O	1.1837790046953123	-11.649557567984374	4.550161988125
O	2.301847324695312	-8.644144327984375	2.528585808125
O	5.576176764695312	-7.3983204979843755	0.9163958981249998
O	6.257603344695312	-10.835684667984374	-0.6265762908750002
O	0.21329012469531228	-1.4916218179843752	-19.507307251874998
O	0.9109336846953122	0.6755690940156247	-16.417320251875
O	3.8150078246953116	-1.4893135679843752	-15.248432751874999
