34

O	-1.8969470089704004	-18.501175252468098	-11.17996202754053
O	-2.2099226495959936	-18.44338054614057	-9.848464194385485
O	-3.15079988730567	-17.527284744222023	-9.459915617172072
O	-2.7752341861293743	-16.103605048992293	-9.449196473078684
O	-2.129966357305533	-16.17122245504017	-10.85043192128926
O	-2.3793922647409578	-14.95838628276115	-11.406346694193086
O	-2.772739175195452	-12.797753065164484	-9.889295896048424
O	-1.4568340975960572	-13.197936251675818	-10.281084562543608
O	-4.699915851098592	-14.667984817223433	-12.171463346272802
O	-3.624913069057693	-14.402240454082555	-11.37969184125312
O	-3.8504708295020933	-13.511564243626655	-10.348304210204226
O	-5.063670969684925	-13.61556139757907	-9.718255696266606
O	-6.1472328450038365	-13.885371004166323	-10.502992918295124
O	-5.906650006362969	-14.799365744889126	-11.479292271292607
O	-6.884878261598523	-15.571032285471667	-12.215686984392415
O	-6.909882911873998	-16.937499368113624	-11.672016827670747
O	-8.149084537006269	-16.80284527821556	-10.778304836895149
O	-8.956996121126512	-17.990651574319283	-10.712292336573313
O	-8.45974220571358	-15.512781483809759	-10.253261389973755
O	-7.443508372349567	-17.833889701329756	-12.719712671592923
O	-6.430790079315998	-18.46910672991857	-13.559410197397701
O	-6.789738810856105	-19.63124235581511	-14.281638439394634
O	-5.242807969671631	-18.648193244641455	-12.79835786334002
O	-4.842301339799922	-17.70109449911694	-12.091261745494027
O	-4.597122999323551	-19.89260624386729	-12.686383469811963
O	-5.742619561510983	-20.849247919662304	-12.630565215517807
O	-5.415760348206505	-22.235862748086923	-12.242043977693903
O	-6.585715974938768	-20.254786710016894	-11.531731735547437
O	-7.525761121750201	-20.834563149125533	-11.011427393398922
O	-5.778461965983306	-19.603028677717706	-10.538340055090723
O	-6.021227187049394	-18.982630156651933	-9.367181833783917
O	-6.3395388074478305	-17.931143882602168	-8.545105708406801
O	-5.937932615419219	-16.558718626195994	-8.30878210303599
O	-6.7523678336492186	-15.760687554361354	-7.358632464325904
