88

O	-4.843908045301587	-0.45077540625396845	1.93216165568254
O	-4.1857444053015875	-1.5522937612539685	1.08993759568254
O	-2.8072815753015874	-1.2481525212539684	1.57484493568254
O	-2.631381529301587	-1.2230275812539684	2.91372943568254
O	-3.609603725301587	-2.0682101612539685	3.65472455568254
O	-2.618953516301587	-2.4368853012539686	4.7772013056825395
O	-2.0708726663015873	-1.0893693512539684	5.2372413556825395
O	-0.8698916573015871	-0.9760574012539686	4.44913923568254
O	-1.257930822301587	-1.7109546012539685	3.24444195568254
O	-1.8716616303015872	-1.8154955812539684	0.7901931956825399
O	-0.7316371223015871	-1.2409472412539684	0.94566076568254
O	-1.807789153301587	-3.1392762312539686	1.3523921556825398
O	-2.505954670301587	-3.9771453212539685	2.17869196568254
O	-1.6848658657415871	-4.825830651253969	2.87214265568254
O	-0.48811518530158704	-5.058643391253969	2.33338916568254
O	0.5935577446984128	-5.070722961253969	3.3186454656825397
O	-0.5439207453015871	-4.845008981253969	0.9920118656825399
O	-1.214969234301587	-3.8238786312539688	0.3979625076825399
O	-1.7294140557015871	-3.7162740212539687	-0.9128854003174602
O	-1.134800381301587	-2.4377360312539684	-1.34310041731746
O	0.4072356046984127	-2.655323041253969	-1.4798701143174602
O	1.248815554698413	-2.2054851012539687	-2.49391772431746
O	1.436810904698413	-3.4311912312539685	-3.1861779743174603
O	1.725755614698413	-4.288203101253969	-2.1723387543174604
O	1.016896994698413	-3.7972244612539687	-1.1511969003174602
O	2.220838224698413	8.585688968746032	-8.67536623431746
O	4.3455245646984135	2.6059184487460314	-10.24317934431746
O	2.7045025646984127	-0.8145707532539685	-10.67845492431746
O	5.267498204698413	-3.6329340512539687	-10.51313112431746
O	7.345996134698412	-1.9393283712539684	-7.75095760431746
O	4.583561354698412	-3.1452907812539688	-5.39133011431746
O	1.754805294698413	-0.5296478882539685	-5.78492129431746
O	2.1749906246984128	3.1788807087460316	-6.11885962431746
O	-0.9837624633015871	5.1803106587460315	-6.74373966431746
O	-2.282009837301587	8.663218998746032	-7.44584071431746
O	-5.684621545301587	9.965969948746032	-8.51280611431746
O	-6.829271465301588	5.548342738746031	-8.09401830431746
O	-5.590724945301587	5.494086578746032	-4.51679828431746
O	-2.5366334083015873	4.360248828746031	-2.55651914431746
O	-1.3269196963015872	6.9504042587460315	0.0054717376825398345
O	-0.573933765301587	4.880529408746032	3.16494829568254
O	1.352485294698413	6.009375108746031	6.30003543568254
O	0.4115118146984127	2.7688984087460313	8.138180735682539
O	-3.354267165301587	3.5371612787460314	8.27988773568254
O	-5.606235695301587	6.547796748746031	8.83022101568254
O	-13.065584265301588	-1.3062023412539685	-9.69894144431746
O	-11.839774065301588	-3.5347329512539685	9.48228695568254
O	-10.490234995301588	-6.969261841253968	10.37730077568254
O	-8.354621255301588	-8.353405211253968	7.60969787568254
O	-6.409624985301587	-11.616715541253967	7.765418005682539
O	-14.123757065301588	-5.546034981253968	5.17445367568254
O	-6.3801056753015875	-10.016715141253968	-2.0677507443174603
O	-8.599272415301588	-7.079862681253968	-3.04851487431746
O	-9.454885235301587	-8.168839801253968	-6.57867743431746
O	-5.696329905301587	-7.969619081253969	-7.47513745431746
O	-5.440156885301587	-4.306315001253969	-6.51949696431746
O	-4.628277105301587	-2.0383254712539687	-9.48545452431746
O	-5.840108115301588	0.8867734677460315	-7.4195857743174605
O	-9.433705685301588	1.5348771187460315	-6.22499720431746
O	-9.010457935301588	2.8104424787460314	-2.7162788643174602
O	-6.708384895301586	3.978114658746031	0.08622963268253986
O	-6.023987075301587	7.407777878746032	1.6873265156825399
O	-4.5379911753015865	6.831845538746031	5.18317648568254
O	-1.7777879413015871	9.333957318746032	6.1783646656825395
O	-1.4302340973015872	7.991457488746032	9.74763987568254
O	-2.5478990693015873	9.692665858746032	12.94035127568254
O	12.294558334698413	1.9877303087460316	-9.72000676431746
O	4.986067324698412	6.573988938746031	12.04325467568254
O	7.207075894698413	1.0420242387460317	10.94780877568254
O	7.673675064698413	3.3802288687460313	7.93891607568254
O	4.669413724698414	2.229508278746031	5.83732533568254
O	4.249485004698412	3.7259161287460314	2.37963613568254
O	1.450279924698413	1.3454335887460316	1.77884145568254
O	3.634188134698413	-1.7292688712539683	2.16468811568254
O	5.257483644698413	-3.2404757612539687	-0.8350461783174602
O	8.261279764698413	-4.7586642212539685	0.8660165456825399
O	10.613922334698412	-4.602201171253968	3.75565536568254
O	9.002059634698412	-7.038148301253969	6.15027942568254
O	10.121827134698412	-8.676127661253968	9.41801012568254
O	5.171834114698413	-10.881672341253967	8.26270071568254
O	8.015366534698412	-2.6281092712539684	8.26197822568254
O	10.034675834698412	-0.47444841825396844	5.85317668568254
O	7.939150604698412	-0.40092046525396846	2.69687384568254
O	8.432369534698413	0.46578979474603155	-0.9991300683174602
O	11.710795034698412	-1.5251400312539685	-1.1370816033174602
O	13.277977834698412	0.8334172427460315	1.4645037356825399
O	-1.488317255301587	-12.548446641253967	-11.684141224317461
O	1.8846775946984127	-10.857355241253968	-12.13449232431746
