96

O	2.2340507576949147	-1.3344997878644085	-2.3011408405491527
O	1.109394957694915	-0.6292586078644082	-1.7284338575491527
O	0.6010910776949148	-0.2263315378644084	-3.074402560549153
O	0.32379513769491486	-1.5602889578644081	-3.709842540549153
O	1.6947568376949147	-2.0617783278644084	-3.4114485905491527
O	-0.7658537593050851	0.27251251413559174	-3.1587246805491525
O	-0.5624040423050851	-1.8571237378644083	-2.8045157205491527
O	-1.095340568305085	0.32817662113559165	-4.606623080549153
O	0.0007076176949147861	0.17159499913559173	-5.397383060549153
O	1.1445493976949148	0.9565918521355917	-4.861536530549152
O	0.5338692876949147	-0.8898579478644084	-6.195774030549153
O	-1.845986304305085	1.5613508071355917	-4.707772900549153
O	-2.7628974723050854	1.5462587681355917	-3.539542130549153
O	-4.075896042305085	1.1752023881355917	-3.6174517505491526
O	-4.305161392305085	2.6523900021355917	-1.8276688605491527
O	-3.144570122305085	2.0969394261355916	-1.2873529985491525
O	-4.839295562305085	2.070152276135592	-2.9394827205491527
O	-2.3265604863050853	1.5756070191355918	-2.2352108805491526
O	-1.0947643103050853	2.5944614421355916	-4.679485730549152
O	-5.070879392305085	3.647248452135592	-1.2427742255491527
O	-4.6963407023050845	4.835618012135592	-1.9923500745491527
O	-3.504069032305085	1.7897643531355918	-0.021967680549152657
O	-4.758995092305085	1.4282838431355918	0.41163457945084736
O	-5.079096412305085	0.4945333981355917	1.4455473594508474
O	-3.8628439523050853	0.1906384331355917	2.3625904994508478
O	-2.873970862305085	1.0450838782355918	1.7815469294508472
O	-3.324425762305085	2.2147945221355916	2.4635907294508472
O	-1.815087165305085	-1.6974486778644082	-2.384143840549153
O	-1.9134360483050852	-2.1779569278644084	-1.0126997942491527
O	-2.692186142305085	-1.6719995578644085	-3.196327010549153
O	-2.5619520183050852	-1.0573375178644082	-0.3064739005491527
O	-3.8904064823050852	-1.732189757864408	-0.4022325215491527
O	-4.702149392305085	-1.2916796078644084	-1.3813791605491526
O	-6.476809902305085	-2.195675467864408	-0.009691600549152746
O	-5.533016052305085	-2.757685877864408	0.8565785694508474
O	-6.070197732305085	-1.4450692678644081	-1.1177344774491527
O	-4.169726982305085	-2.6101529078644083	0.5880019894508473
O	-5.2238699023050845	10.30258868213559	7.061040679450848
O	-5.644902262305085	7.8291749821355925	4.2604228694508475
O	-6.083214252305085	4.4882502321355915	6.147444919450847
O	-4.164733472305086	3.220004392135592	9.208949809450846
O	-5.237063522305085	-0.20659859786440826	10.440747609450847
O	-5.852668912305085	-4.856141987864408	8.490700639450846
O	-3.569533412305085	-2.3307939378644082	6.639871629450847
O	0.11794780769491497	-3.222873177864408	7.325329459450847
O	1.8552181576949147	-2.706045027864408	4.013511859450847
O	5.569170517694915	-2.5124880978644084	3.117018179450847
O	4.722995637694915	-2.5092262778644083	-0.6554019495491527
O	3.312237657694915	-6.061199277864409	-0.6375484535491527
O	4.144452467694915	-9.431375277864408	0.9674987894508476
O	-17.395260652305083	-9.04314587786441	0.5688449594508473
O	-3.488101182305085	-10.674264977864409	-7.9398959005491525
O	-3.879928522305085	-8.415371737864408	-10.940756100549153
O	-5.448532672305085	-5.166388457864409	-9.907902350549152
O	-6.036410562305085	-2.2571292778644083	-12.355312690549153
O	-8.683304652305086	-10.468075177864408	-7.131605680549153
O	-12.283198352305085	0.2388082381355917	-4.997424940549153
O	-12.458793752305086	-2.451893327864408	-2.3598517205491527
O	-15.956717752305085	-1.6278898078644084	-1.0582985701491527
O	-14.628601352305084	1.7599657601355916	0.20772466945084744
O	-11.980775252305085	0.11099180013559173	2.388644669450847
O	-10.310202032305085	-2.2163661678644084	6.831978929450847
O	-10.970094702305085	-5.961577647864408	6.102319589450847
O	-7.605725572305085	-7.184382127864408	4.824916949450847
O	-3.8799800723050852	-6.655000837864408	4.298160679450847
O	-0.7320468643050851	-7.950127037864409	6.045133249450847
O	2.296671737694915	-7.578217557864409	3.736580609450847
O	5.569196147694915	-6.493285147864409	5.304739359450847
O	7.580264187694915	-6.760938127864408	2.0374292894508477
O	10.173258847694916	-9.442034577864408	1.2176485594508473
O	7.567219947694914	-10.49267167786441	-4.118393350549153
O	13.499577247694916	-7.853511147864408	-1.9553199505491525
O	11.828314647694915	-4.396002847864409	-2.0081447155491525
O	12.973111147694915	0.9171009471355916	-2.338365060549153
O	11.574777547694914	6.032251332135592	-4.011776860549153
O	9.414702547694915	3.1757325421355915	-2.6434941405491523
O	8.686913847694916	3.4955274621355916	1.1136993194508473
O	5.116339747694915	2.0715088011355918	1.1364106494508472
O	3.288280307694915	2.1571620821355917	4.475800689450847
O	0.3879173676949148	0.9233826301355916	2.6795471294508477
O	0.16681210769491495	3.9895925521355915	0.23222717945084725
O	-2.078962154305085	6.930830242135592	1.4673060294508475
O	-0.15251908230508504	9.54411407213559	-0.49131409854915264
O	3.145556897694915	10.599043002135591	-1.8748567315491527
O	2.821777837694915	9.501569092135592	-5.458266750549153
O	0.484085267694915	7.334057452135593	-10.272992930549153
O	2.479107447694915	5.335418312135591	-12.778447090549152
O	3.6517958076949153	2.1255052821355918	-11.097528990549153
O	9.080626647694915	5.029743892135592	-9.139195420549154
O	7.898135857694914	7.606019352135592	-6.642713170549153
O	6.074410357694915	6.213812032135591	-3.5859391705491523
O	6.482803577694915	7.828144902135591	-0.11220662254915259
O	3.1920002576949145	6.925657802135591	1.6287556694508474
O	1.235254917694915	8.104043692135592	4.7026831794508475
O	1.7813848576949147	11.792754322135591	3.723224089450847
O	5.5728215576949145	11.342259322135591	4.116641519450847
