25

O	-3.959306047771394	-13.539571160266803	-8.275498088777985
O	-3.4039664342071254	-14.61397688758266	-7.871821737581125
O	-2.547609399381215	-12.053706725780625	-12.645091408754036
O	-3.4174405703540103	-15.646081432544936	-8.773264083626813
O	-4.5381794523229	-16.113824275862076	-9.379777615995398
O	-5.476944294197605	-15.21847656131858	-9.204214969351849
O	-3.383543331964429	-12.215361675434531	-8.215981444463075
O	-5.185088450582696	-13.956954294295866	-8.691909671939573
O	-2.6341238409985617	-16.693392793625158	-8.267324798025225
O	-6.833918645830663	-15.678435270417655	-9.070193602837444
O	-5.847916044325119	-13.674494265230248	-12.214149036488328
O	-7.132507777956523	-15.750730342678061	-7.6256659764716055
O	-5.342757549414074	-11.365840822045985	-9.031509038470329
O	-6.508780245506591	-10.786140655809874	-9.791591027924413
O	-6.895809909881018	-11.967142158627235	-10.661095142415125
O	-5.6858318398232495	-12.504909911023365	-11.345110255395454
O	-4.608886575222707	-12.38850785557414	-10.527341996505044
O	-5.391309386526903	-12.663702452032389	-9.210990036132975
O	-7.541817025865088	-12.933118317820542	-9.960723370799837
O	-7.917462807106309	-13.967343663615095	-10.987944070361117
O	-7.1037364928445665	-14.315965668655863	-12.013702360925972
O	-4.681401655643057	-14.403863178605533	-12.550695090481916
O	-3.634409722303576	-14.012313748111165	-11.611088718986963
O	-2.4332375502007597	-13.26530284734238	-12.026082338668918
O	-3.3572003240305333	-12.00143328242198	-13.755511164348224
