90

O	4.826952727160713	-0.9156713869107145	-1.6488422723035718
O	5.296512297160714	-1.9737227169107143	-0.917937591303572
O	4.371807917160714	-2.8081227369107142	-0.348595947103572
O	3.626344027160714	-3.7255487469107145	-1.226457824303572
O	3.3074985471607143	-2.6219362669107142	-2.258339852303572
O	2.077180657160714	-2.9384889969107144	-2.7361874823035723
O	1.188718307160714	-5.455274756910715	-2.7057751823035723
O	1.968806357160714	-4.958463966910714	-3.796597252303572
O	0.23899628316071403	-2.4216176769107145	-1.1842569223035722
O	1.044858497160714	-3.2521475569107143	-1.9011665223035719
O	0.850911751160714	-4.602658136910715	-1.685651572303572
O	0.5853853281607141	-4.973406086910715	-0.392719712403572
O	-0.21880047283928597	-4.145418036910715	0.335591385696428
O	0.02692073446071403	-2.8238183769107144	0.13704078269642794
O	-0.359468071839286	-1.7235989069107145	0.9943025576964281
O	0.819220276160714	-1.2889696869107143	1.7593031976964277
O	0.5138835461607141	-2.0132448669107146	3.0763713276964277
O	0.9066465341607141	-1.2840305069107145	4.251933417696429
O	-0.251292978839286	-3.2163741469107143	3.017820297696428
O	0.5983354181607141	0.11172797818928551	2.177865347696428
O	1.1441303071607138	1.1178362070892855	1.2700960376964279
O	1.3613197571607139	2.4240977630892857	1.767616417696428
O	2.293486417160714	0.5849588040892855	0.623879097696428
O	2.235144617160714	-0.5766109319107144	0.17139871469642798
O	3.5332786771607143	1.2489526630892855	0.617685097696428
O	3.583489787160714	1.8562950830892855	1.9811569076964277
O	4.886932807160714	2.4085263130892858	2.401351317696428
O	3.2885357271607143	0.6665631750892855	2.858180737696428
O	3.4336125271607143	0.6671844440892856	4.070407837696428
O	3.793609477160714	-0.5507888609107146	2.2870160276964278
O	3.842572927160714	-1.8398626169107146	2.6760305376964277
O	3.384244137160714	-3.1241891269107143	2.828329467696428
O	2.801984637160714	-4.186158576910715	2.0321622576964278
O	2.3104734271607144	-5.389095266910714	2.7493112676964278
O	-2.933319542839286	-4.188565696910715	-12.59231967230357
O	-1.2308284828392861	-4.634463146910714	-9.272396022303571
O	-3.9711016428392862	-4.8415236969107145	-6.620996482303572
O	-7.158419702839287	-2.766675116910714	-6.6676405223035715
O	-9.690883762839286	-3.5723726069107142	-3.984764172303572
O	-9.643138422839286	-4.050798636910715	1.096917367696428
O	-6.995241142839286	-1.9343415169107145	-0.679397782303572
O	-7.599187062839286	1.8530486730892857	-0.17028141330357202
O	-4.114531082839286	3.2467356130892857	0.47185112169642796
O	-2.838838272839286	6.863043643089285	0.587777127696428
O	0.6447788581607141	5.630932903089286	1.933671367696428
O	-0.798079683839286	4.5481322330892855	5.2910314776964285
O	-3.433240772839286	5.680295343089286	7.8423992076964275
O	-4.657408692839287	2.6408735130892858	9.741809527696429
O	-1.481044982839286	-15.597564736910716	5.654835077696428
O	-4.496174602839286	-15.947151136910714	7.9877649376964275
O	3.954807887160714	-2.4843217969107143	12.353474127696428
O	7.527583027160714	-3.1325830869107145	11.261028727696429
O	7.570866917160714	-4.739293566910715	7.821704387696428
O	10.839125547160714	-5.560541856910715	5.948444817696428
O	2.885545557160714	-7.6402395069107145	11.938103227696429
O	4.341969417160714	-11.281990936910715	1.0851624576964278
O	0.943548067160714	-11.355715136910716	2.737884467696428
O	-0.22119858983928595	-14.810183036910715	1.6325981376964278
O	-0.17641358983928596	-13.596386236910716	-2.016804522303572
O	-2.682176402839286	-10.832467436910715	-1.2996507373035722
O	-7.4658449228392865	-8.711371566910715	-0.690139742303572
O	-8.095932522839286	-9.234553716910716	3.070363517696428
O	-7.062800922839286	-5.9045717369107145	4.595349497696429
O	-6.347045332839286	-2.2119340769107145	4.237444317696428
O	-8.084165182839286	1.1198303060892856	4.744263757696428
O	-5.4366894328392865	3.896810923089286	5.135252847696428
O	-6.3402257128392865	7.269958633089286	3.534832237696428
O	-3.170500412839286	9.012386063089284	4.874674417696428
O	-3.125683622839286	11.662980163089285	7.6001804176964285
O	1.193352587160714	8.821097213089285	10.598477827696428
O	1.786703417160714	12.801811563089284	4.008702247696428
O	7.197949397160714	12.027682863089284	-5.037490712303572
O	4.785413447160714	10.048732353089285	-2.794191142303572
O	1.3298938371607139	9.558719533089285	-4.386333442303572
O	0.5346549101607141	6.077651623089285	-3.017021072303572
O	-2.609414662839286	4.335125443089286	-4.158810252303572
O	-1.4802794228392862	1.2075589630892856	-2.283613952303572
O	1.666942687160714	0.8518182990892855	-4.363508002303572
O	1.463016187160714	-1.2988570369107144	-7.601125092303572
O	4.2979329771607135	0.4592270050892855	-9.381054532303573
O	9.149545237160714	3.1055422330892855	-7.6974115623035715
O	12.767286547160714	0.6481722890892856	-3.9004404923035723
O	14.476663147160714	2.5283427530892855	-1.117233891303572
O	11.826899347160714	3.8385468530892854	1.288287877696428
O	9.949329477160713	8.150678563089285	-5.5404799523035715
O	6.490436697160714	6.580088483089286	-5.319295132303572
O	3.8065019971607144	7.113554223089285	-7.971464082303572
O	1.6367488871607139	4.002106943089285	-7.7074322823035715
O	-0.9706290628392858	2.2074802230892856	-9.839410092303572
O	1.242941587160714	2.5395015930892857	-12.963579772303572
