37

O	-1.8789274324112446	-18.466251715320595	-11.00820117846218
O	-2.9790318551909962	-19.320683181542794	-11.104600082619669
O	-4.032149867078918	-18.61653779229638	-11.60568343295711
O	-4.727228479305078	-19.10867881333515	-12.611639184608585
O	-5.814250909945702	-18.41571780170171	-10.599574876178751
O	-2.0693484779441156	-17.02135648783117	-11.23170596833576
O	-5.834815790503109	-19.398075254497797	-11.557591020364654
O	-3.17621941631607	-16.61453121561093	-11.86928542136205
O	-3.355394502164982	-15.267568646168957	-11.994551092157392
O	-6.027299410298698	-20.363044716962385	-13.766102140435386
O	-4.980563258067026	-16.19776286640892	-9.033796875008136
O	-0.9245202769267244	-18.863654786357863	-11.668532151059399
O	-2.832818989393151	-14.469097055443665	-11.022680214523586
O	-1.4881109090681521	-16.190154639584744	-10.349050227007773
O	-3.0702676220231	-20.618495764293616	-11.528970382032261
O	-2.1717101207372376	-15.07038863951975	-9.98887808032629
O	-5.191843200197246	-19.16156268663636	-13.952657276417458
O	-6.713380338015864	-19.87452575908575	-12.550321567731405
O	-4.603447902016368	-14.873955628110776	-12.38801425548445
O	-5.9473918005679245	-15.21847078744565	-9.20132091869624
O	-3.0415740493505945	-13.081553439299602	-10.98833048172607
O	-6.791096387166403	-15.064619712035391	-12.099903908042403
O	-7.592347338430741	-16.99809607864005	-12.848173095332482
O	-5.581974268037618	-15.844134001608024	-12.3187550929624
O	-7.766358301084452	-15.583897822472695	-13.083587937279294
O	-2.9222195767223482	-20.604394023366133	-13.00258152107488
O	-4.190618631768312	-21.519937019009802	-11.27891347693592
O	-5.576944176114775	-13.911897580914498	-9.28246440868003
O	-7.260060699296811	-15.460959513431904	-8.900765080393231
O	-3.927165043062171	-12.601988519548614	-11.963868899908144
O	-8.326618494030217	-17.035060743872652	-11.683089535161297
O	-6.454975666850202	-12.949158690666835	-9.779075645782074
O	-8.18350723561732	-14.529755744040884	-9.37358223711245
O	-7.7946751264192695	-13.192838827883415	-9.466831310181728
O	-4.791568408030878	-17.74379813837921	-9.545573915958466
O	-4.674557016172207	-19.035479497858578	-8.753416135017552
O	-3.5695598370544412	-17.673972374165388	-8.696367479443982
