39

O	-4.419543461500754	-20.73786310635512	-11.17606120632238
O	-4.81039852733581	-19.96351008089842	-12.246434209238686
O	-3.559775433187192	-19.497625466267205	-12.279734114377737
O	-3.5149899931837623	-18.547476941661458	-11.051868247866523
O	-4.732823201553912	-18.64888880562712	-10.31112000860804
O	-4.8535500025852585	-19.99291430863596	-10.048752261654622
O	-5.722917851655088	-17.63638861200356	-10.144859419552006
O	-5.256817754927395	-16.36786304369169	-10.246169659606618
O	-5.860998545579644	-15.312266581505137	-9.597347550487374
O	-7.080859002050419	-15.555603258935642	-9.035229932771296
O	-7.5113128353563	-16.847609261659244	-8.890834764690549
O	-6.451553958722928	-17.76348568871195	-8.99438435069295
O	-3.9900767337793255	-16.2671225174687	-10.85437545373826
O	-3.790308316113381	-15.02681816044356	-11.344356377942441
O	-5.108345717041164	-14.3625693234364	-11.611652298862696
O	-5.725911071864366	-15.30621766029932	-12.595680328586608
O	-7.037203557873049	-15.290761664465538	-12.484365011068904
O	-8.009305975388266	-16.104644179730997	-12.080868835479814
O	-5.436258019013023	-18.655411810417057	-12.378724906656817
O	-6.29758025611729	-18.304222126939123	-13.366653277842525
O	-5.503528169787798	-19.563064263721166	-13.573706398307504
O	-6.829864078693795	-18.226361717878376	-14.621797830568255
O	-6.252590492255486	-20.493516080616274	-13.902679234686062
O	-4.588717096240587	-19.156536112949897	-14.470668002946184
O	-6.490588629909612	-21.74931820525919	-13.3684924986426
O	-7.200759251465932	-21.26198065461296	-12.188524513946353
O	-7.845470228147065	-20.015687005371543	-12.10357848954231
O	-6.904508873554577	-22.02581458009415	-11.281623947045434
O	-5.763016225142808	-22.977226360375347	-13.295379443098701
O	-7.830861109344524	-19.644110322752265	-10.770649983160284
O	-8.433755137523416	-20.822981352035725	-10.067662867007826
O	-9.76782999221817	-20.739331322397184	-10.779047934433002
O	-10.256584887033998	-19.350890401619704	-10.880371160365451
O	-7.9985310090019075	-22.195944805620275	-9.766051673484387
O	-8.364246780834964	-20.22302467312245	-8.712608727850874
O	-9.681434062731817	-21.128459775785533	-12.003429512258514
O	-6.597723084045855	-23.920693915239184	-12.323366561186571
O	-4.533582495435387	-23.134546469265718	-12.478494498312667
O	-5.41229070918855	-20.44547673849158	-9.149026564203652
