96

O	-3.942144464307692	-1.2014104440615379	-1.5972924338861538
O	-4.352835214307692	-0.41360332406153755	-2.5331916868861537
O	-1.2568036723076923	1.8396331489384623	-3.6774432868861537
O	-4.030307974307693	0.8481588909384623	-2.3892442068861537
O	-3.585841744307692	1.3286680059384623	-1.2571961108861538
O	-3.2270664343076922	0.6240935919384624	-0.23012301888615383
O	-3.880291814307692	-2.5732167340615377	-1.927388736886154
O	-3.3581647543076922	-0.7007027040615377	-0.4765319308861538
O	-4.842614514307693	1.6633762299384625	-3.2420639868861536
O	-0.5823841643076921	-0.3434607040615376	-1.3073463078861538
O	-2.2110529153076923	0.8621096209384623	0.8474914131138461
O	-2.566911130307692	-2.978002774061538	-0.07271096988615378
O	-1.4629834293076922	-3.6463395640615377	-0.5996660898861538
O	-0.7980737173076922	-2.648061104061538	-1.2183253528861537
O	-0.5008929143076921	-1.4597303940615376	-0.3922906898861538
O	-1.3308848933076922	-1.1636320940615374	0.6242868031138463
O	-2.595817773307692	-1.6930799140615376	0.3406547531138463
O	0.348274795692308	-2.4098791040615377	-1.9626944468861538
O	0.557904385692308	-1.0019019340615376	-2.5215965168861536
O	-0.9158137693076922	-0.2512145340615377	-2.592293626886154
O	0.18574443569230792	0.6854891609384623	-0.8001156460861538
O	-0.38683655430769215	1.8119044659384622	-1.3816963378861538
O	-0.18571422430769213	1.9556655929384623	-2.8283944668861536
O	-2.047612757307692	2.8271237659384623	-4.072074186886154
O	-2.730758094307692	0.5757922959384624	2.1050974931138464
O	-1.5841521357076922	-1.1871643940615377	-3.270390946886154
O	-0.7733492893076922	-2.221845964061538	-3.823592826886154
O	-1.0759451123076922	-3.3746902640615377	-4.476862046886154
O	-2.4478990983076923	-3.6090279240615373	-4.471217706886154
O	-3.016992724307692	-2.386636394061538	-4.810210236886154
O	-2.3958077753076923	-1.1613979040615376	-4.411521536886154
O	9.283310695692307	0.40926844993846234	-8.120326256886154
O	6.2405636356923075	-1.3927050240615375	-9.468958636886153
O	4.2372821556923075	0.7563850409384624	-11.914425676886154
O	4.859699485692309	4.012013785938462	-9.970954576886154
O	2.185319355692308	2.7844119859384624	-7.599134366886154
O	3.9784360456923076	0.3033758819384623	-5.263776806886154
O	7.484846295692309	0.6742272109384624	-3.8295557068861537
O	8.719514395692308	-2.264920814061538	-1.804420336886154
O	11.742064695692308	-3.5859275340615375	-0.003450235886153785
O	12.567270195692307	-6.9869277240615375	1.3979650631138463
O	8.372144095692308	-7.955111524061538	0.05453017611384625
O	6.923019385692308	-5.068366234061537	2.0765910631138462
O	5.779763895692307	-1.5063819140615378	1.5753927831138461
O	7.139762595692309	0.9157050369384624	4.156432683113846
O	4.278623515692308	3.1624623259384625	5.131052633113846
O	4.029407625692308	6.385265285938463	7.096512273113846
O	0.16768686569230784	6.260518175938463	7.1832124231138454
O	0.04898560569230792	3.1786797359384624	9.439766123113847
O	1.8829035356923076	1.6599505379384625	12.359763123113847
O	-5.022835874307692	-13.066745624061538	-1.4683208238861538
O	-3.060455954307692	-15.594787324061537	0.6078376231138461
O	1.8339906056923079	-14.443868424061538	-1.6827624768861538
O	-8.294522214307692	-3.921415304061538	10.651681323113847
O	-11.417514144307692	-2.4614957240615376	9.081248473113847
O	-10.919972524307692	-1.9978564940615375	5.409189053113846
O	-13.500855604307691	-0.47182457406153766	3.042786933113846
O	-13.972137304307692	-3.8407059340615377	1.1567972531138464
O	-12.233177804307692	-6.903953574061537	7.402667873113846
O	-8.673480084307693	-8.144507204061538	7.584686803113846
O	-8.422659434307691	-11.005798024061539	3.848756073113846
O	-9.788395304307691	-7.297689394061537	-3.6879120068861537
O	-7.663020874307692	-5.321775474061537	-3.6916801468861538
O	-5.149227204307692	-7.409724534061539	-1.8429181268861536
O	-4.731218844307692	-10.110660824061538	-4.552130476886154
O	-3.245173314307692	-7.450493974061539	-6.903315556886154
O	-0.3676209243076922	-6.885249934061537	-4.443771596886154
O	3.1266043656923075	-7.304084494061538	-5.864590246886154
O	4.288711805692309	-7.014844804061537	-2.238146366886154
O	3.561174695692308	-9.484947624061538	0.6181044631138463
O	3.053148265692308	-7.214792754061538	3.6039089831138464
O	3.321797805692308	-3.801148704061538	5.243953713113846
O	5.717173175692308	-2.2403353740615377	7.742199623113845
O	4.037169245692308	0.7908102469384624	9.357089023113847
O	6.334518925692308	3.7840976259384624	10.091579623113846
O	3.5802629256923075	5.7991046559384625	11.840859523113847
O	3.3474592556923075	6.539263215938462	15.532449623113848
O	-1.1089884363076923	13.472228475938461	5.3209556231138455
O	1.8975369856923079	8.924517885938462	3.364666443113846
O	4.611383735692307	6.835270645938463	1.7459362131138465
O	2.1690751856923076	4.006849785938462	1.4484382231138464
O	-0.3287448143076921	5.940531525938463	-0.7524122912861538
O	0.4067776956923077	5.7553576959384625	-4.568258566886154
O	-1.189823705307692	9.112867575938463	-5.446794346886154
O	-1.8121333243076923	12.660954275938462	-4.360658676886154
O	-5.377962744307692	12.403914875938462	-3.0965615368861537
O	-8.050372864307692	14.880921475938463	-1.9959098568861537
O	-10.538549884307692	9.959427815938461	-1.6448362568861539
O	-2.786363534307692	12.721987275938462	1.1215168231138462
O	0.6233711356923077	13.326081075938461	-0.4681021418861538
O	1.6165033956923076	9.889631165938463	-1.7775697268861537
O	4.201461065692309	8.523711805938463	-4.276978216886154
O	3.248237715692308	11.149931675938461	-6.8961727768861545
O	-6.857844054307693	-5.341245784061538	-17.105619976886153
O	-4.396110174307692	-6.143118054061537	-14.272428376886154
O	-1.987801121307692	-3.346313534061538	-15.275674476886154
