83

O	1.3882001730999998	0.5938783227000002	-1.417899072273333
O	1.1810474630999999	-0.5889765032999998	-1.6217319722733328
O	1.6087837831	-1.4296872032999999	-0.6560317822733329
O	1.0152107130999999	-0.9740799282999999	-2.8787877222733327
O	1.2804924831	-2.7368024032999996	-0.7401750522733329
O	1.8925762630999998	-0.9364710522999997	0.5419566517266671
O	0.9453760531	-2.2933860533	-3.0020862422733328
O	1.6706702330999998	-3.6052676132999997	0.1868213007266671
O	1.1340628630999998	-3.1334017632999998	-1.9910779922733328
O	2.5906580631000002	-1.7503829032999998	1.3714528377266673
O	0.27064211309999986	-2.7698574433	-4.134968662273333
O	2.2737511431	-3.0777499033	1.282595837726667
O	2.4487258831	-1.2090431432999997	2.782740267726667
O	1.0642693930999998	-1.2503244532999997	3.003655227726667
O	0.37483876309999986	-2.4249594833	2.522483357726667
O	-0.6731973589000001	-2.0909263232999997	1.7148073977266671
O	0.2548081930999999	-3.6354403733	3.141936947726667
O	-1.8459982779000002	-2.7567604833	1.7849550777266674
O	-1.0418237462000002	-3.9549245933	3.528091687726667
O	-2.1714309069000004	-3.3161771332999996	3.025950397726667
O	-3.4639601569	-3.7918067432999996	3.4287795977266673
O	-3.5948011569	-5.050203553299999	3.555303017726667
O	-4.1568156469	-3.0481585432999996	4.391115037726666
O	-2.4606038669	12.9998573567	-3.280331022273333
O	-6.9725275869	10.8813390567	0.42213918272666706
O	-11.362440236900001	7.3332184767	5.7141695877266665
O	-13.0519840369	4.4513499667000005	7.409760727726667
O	-2.8125796469	3.8517755967000005	-11.097534872273332
O	-5.8139841369	3.4149495167	-8.917524562273332
O	-5.3568087668999995	3.8312562067000004	-5.176572292273334
O	-7.8310222069	2.8402423567	-2.5291722022733327
O	-8.5690322669	5.8575384867	-0.30593306487333294
O	-8.7206385669	3.7817156167	2.937360347726667
O	-5.1396174469	2.6258758667000004	2.889855367726667
O	-3.4730406869	4.309741836700001	-0.0784277502733329
O	-2.8757227669	0.9630443167000002	-1.6483619522733328
O	-2.3606202969	0.7079840147000003	-5.428400912273333
O	-5.071365216899999	-1.7330337532999998	-6.437353992273334
O	-4.3996004069	-1.7791665532999998	-10.177454672273333
O	-3.6090749869000005	0.2850783887000002	-13.258507372273332
O	-5.9091237569	-5.4366584833	-10.983326872273333
O	-4.2432250369	-7.3293795833	-8.130302322273334
O	-6.4103295369	-10.0729113133	-6.629236292273333
O	-8.8725546069	-8.5201962233	-4.150322092273333
O	-8.6297104669	-10.3259550433	-0.8063325822733329
O	-12.3117984369	-10.1693673433	0.17822086272666707
O	-2.1682401369	-10.1647328933	-4.383331072273333
O	-0.15363982590000014	-7.0072267233	-4.589278022273334
O	1.6889398330999998	-6.9601801133	-1.284055242273333
O	5.486332243100001	-6.4415053033	-1.192098318273333
O	5.7633071631	-10.0283661233	-0.04030042427333291
O	4.4986138331	-11.3986488433	-3.406275012273333
O	5.8873719531	-8.5913330333	-5.575012582273334
O	9.511810963099999	-9.1622796833	-4.4590950822733335
O	13.2445060631	-3.7013225533	-2.130443922273333
O	6.4389980831	-6.643258353299999	-10.433923072273332
O	9.609259563099998	-4.638667133299999	-10.067012022273332
O	5.0493602531	-1.8390996532999997	-9.123082242273332
O	7.5718402331000005	-1.7565080532999997	-6.156173912273333
O	4.3009870531	2.0776956267	-4.742085392273333
O	7.1398558831	3.3295914067	-2.698878942273333
O	3.7084542531	7.4644026067	-4.489078302273334
O	1.8169173931	5.5043301667	-1.7342584722733327
O	4.6265607531	5.2696544167	0.7886498177266671
O	5.7473763131	8.864514316700001	0.17742261272666707
O	2.1910592630999997	9.948727356700001	0.813987297726667
O	1.9691849231	7.7320438467	3.9194495077266676
O	9.858000063099999	8.7054702767	2.688367247726667
O	12.791161663099999	3.3736253667000002	4.919976187726666
O	11.9121784631	-0.35321583329999984	4.5940943077266665
O	8.663940343099998	2.0739268367	8.321811677726668
O	7.0151642131	0.5297358637000003	5.1632949477266665
O	6.5506584231	-2.8045960632999996	6.995613567726667
O	5.4647498731	-1.0710814982999999	10.242652727726668
O	2.7239914131000003	1.3670712467000001	8.996249117726668
O	-0.29305086190000007	-0.6965953622999999	10.078026027726668
O	1.2733243630999997	-1.3691436832999997	13.467782827726667
O	2.2146135430999996	2.2677133567000003	13.949360127726667
O	-1.3850101389	3.2198900267000004	13.009761027726668
O	-2.7352865469000003	0.7903209517000003	15.605229927726668
O	-5.1463189769	3.8960055567000005	8.360126777726668
O	-8.3345566969	3.9789641867	10.526949927726667
O	-8.2450102269	1.4657787267000002	13.369165127726667
