23

O	-0.9405202585579786	-0.15683113872715992	7.458501453991076
O	0.139378224854265	0.401559162108325	7.383500299126382
O	0.2670136795047753	1.2888528433970579	6.374169426038218
O	1.1811541088959137	-0.20277567540130015	7.936200982866516
O	1.3776810709049243	2.054860605139395	6.318893135968199
O	-0.8275865602531217	1.737866112023386	5.774824758064076
O	2.3265313635100906	0.41203250207594966	7.67017484551604
O	1.5500795693264793	2.9478832893414992	5.350088728828569
O	2.4254028182298164	1.4508965115867667	6.848984981923241
O	-0.6405792088390558	2.3801918773403266	4.595723199670935
O	3.3665978627881943	0.19670594442075462	8.585384987215347
O	0.48940648534874565	3.147397945344337	4.526760200674181
O	-1.901542349322517	3.1685200068224804	4.290049504103799
O	-2.007158374553108	4.040106111768985	5.383854905301339
O	-0.7768535766124203	4.64207374712799	5.842759564145641
O	-0.5885214752613865	4.43325341794131	7.178133448523113
O	-0.15152808440870325	5.748380073689162	5.344313565501343
O	-0.09635133884059255	5.408072477884783	7.972623334189376
O	-0.1257795527203578	6.832281330757402	6.214333745789214
O	-0.3635488446822921	6.724983553225245	7.581121761913373
O	-0.22028644891998805	7.897376873279059	8.396042949170518
O	0.7300276984517857	8.687396674856316	8.096941279284572
O	-1.3898577293811127	8.545334027269407	8.810054327008887
