87

O	1.2133246479701492	-2.162867702273135	-0.1427469777686568
O	1.314974647970149	-1.5490749022731347	1.1344591682313432
O	1.309137557970149	-2.2791286022731345	2.323656058231343
O	2.669343887970149	-0.4466136022731346	1.1132019082313431
O	0.11261454397014892	-0.2821890722731346	1.5126988282313432
O	0.1728851779701489	0.3926166567268653	2.726556758231343
O	-0.7870694740298511	1.3881752217268652	2.8769832282313432
O	-1.718487096029851	1.5337430107268653	1.8336442582313432
O	-1.432265887029851	0.9751720002268653	0.5914040652313431
O	-0.37276204102985105	0.16657506772686526	0.3542362462313432
O	-0.3095926590298511	-0.5395274822731346	-0.8408951187686569
O	-1.368224431029851	-0.5697125222731347	-1.706474501768657
O	-2.2893622620298513	0.3544746517268653	-1.4998573317686568
O	-2.364905102029851	1.0472067977268653	-0.3628484377686568
O	2.500112357970149	0.2812284087268653	2.393385068231343
O	4.739494387970149	-0.0441142092731347	2.780883568231343
O	5.038790817970148	0.030918576726865266	1.4082566182313432
O	3.327219117970149	0.5020257257268652	3.368678828231343
O	5.049839987970149	-1.2507722622731345	0.8358991272313432
O	3.653723877970149	-1.4717319722731348	1.0363040182313432
O	-8.107455862029852	-10.693089712273135	-0.9729851637686568
O	-4.374011862029851	-10.852113712273136	-0.13510094126865682
O	-1.774038657029851	-9.562007012273135	2.325610498231343
O	0.47329941797014896	-7.046007032273135	0.5313675622313432
O	2.553588787970149	-5.950027932273135	3.5036595582313432
O	3.4006340179701486	-7.002311672273135	7.045824068231343
O	5.7173896379701485	-5.599680272273135	9.745989388231344
O	2.737749337970149	-2.7382678022731346	14.355319658231345
O	0.6336660879701489	-4.840081502273135	11.953704258231344
O	-0.09941739602985111	-5.504378522273135	8.279202328231344
O	-1.628807877029851	-4.150724672273135	5.079506758231343
O	-4.079577582029851	-6.2185394222731345	3.125365548231343
O	-5.912191322029852	-5.807930962273135	-0.1643042807686568
O	-9.612347702029851	-6.051336942273135	0.7100446492313431
O	-11.63102435202985	-2.6350119722731344	-3.476883131768657
O	-9.395013202029851	-0.9872123522731346	-0.8542426587686568
O	-6.042861342029852	-1.4344947822731349	0.8699434102313431
O	-6.639116972029852	-1.8928761122731348	4.587350158231343
O	-4.026682112029851	-1.2591364522731345	7.252778248231343
O	-4.143094362029851	-3.000649262273135	10.635867758231344
O	-2.4553922820298513	-1.4811062122731349	13.690608758231344
O	-4.606394952029851	10.868622387726864	4.923950298231343
O	-1.4553380520298511	11.799246687726866	-0.5733029027686568
O	-2.895303322029851	8.250278737726866	-0.28255036976865683
O	-6.527199542029852	8.920258737726865	0.6347170922313432
O	-8.12548862202985	7.593067087726865	3.8108102082313433
O	-11.785629552029851	6.712344417726865	3.2934038882313432
O	-7.3178801520298515	2.2968709377268652	8.077763668231343
O	-9.21672844202985	1.9635387077268653	4.7962901582313435
O	-7.171877152029851	3.655444207726865	2.1136043682313432
O	-7.376659552029851	3.806293807726865	-1.706896881768657
O	-5.435654682029852	0.8575967000268653	-3.221868951768657
O	-2.264265322029851	1.8420250317268652	-5.115809721768657
O	-1.766268768029851	-1.1125602522731348	-7.419177551768657
O	1.458512907970149	0.2502858697268653	-8.917990581768656
O	3.5508617579701487	-0.8504748122731347	-5.9419530917686565
O	6.291863987970149	1.2487573437268653	-4.3875052617686565
O	9.532976047970148	2.764483077726865	-5.631670981768657
O	11.643974447970148	0.11541362572686531	-3.8781124917686567
O	9.952000647970149	-2.522502132273135	-6.0772899117686565
O	4.195169017970149	15.811066087726864	-2.933749081768657
O	11.063745847970148	10.580447387726865	2.9316836582313432
O	12.058599847970148	7.257528447726865	1.318565198231343
O	11.200630047970149	4.891902097726865	-1.6654923517686568
O	9.274535447970148	2.8301065377268655	0.7808865532313432
O	6.727814767970148	5.705755627726865	1.4342201982313432
O	6.362408797970149	6.318267237726865	-2.258397871768657
O	3.442466177970149	4.424587507726866	-3.8288307317686567
O	2.192204577970149	4.4483240577268655	-7.455364991768657
O	-1.4181824520298512	4.506558997726866	-8.681350871768656
O	1.951263297970149	5.044918767726865	-12.479972241768657
O	3.273800167970149	8.916050157726865	-7.233050571768657
O	1.621044447970149	9.418745777726865	-3.845331551768657
O	3.1148474979701493	9.584219367726865	-0.3701215727686568
O	1.860459227970149	6.822843837726865	1.9254353682313432
O	2.218788967970149	6.629834107726865	5.724004648231343
O	15.548752647970147	5.936440537726865	8.404345868231344
O	1.3287981779701492	-0.48399438227313474	-14.859302841768656
O	-8.864155872029851	-4.635974722273135	-9.855503881768655
O	-7.2072823820298515	-7.015594202273135	-7.379173411768657
O	-1.082056493029851	-7.363327262273135	-6.7208284117686565
O	3.716787387970149	-5.113259152273135	-7.985738131768657
O	3.806825217970149	-6.379287622273135	-4.427279301768657
O	5.958501787970149	-9.201349712273135	-3.0526802417686567
O	3.607382557970149	-12.462321212273135	1.570170548231343
O	2.694722677970149	-15.614221812273136	3.4853373482313432
O	-0.7286674850298511	-14.610272312273135	4.8724812582313435
