23

O	48.99058751743985	106.23475623418082	35.108594347801535
O	49.71948409119902	105.07066039978945	35.20876593784895
O	49.761064475800055	104.28345704204091	34.098449537967156
O	48.58479391796249	104.11336444834055	33.43176110541893
O	48.62583240560211	103.31110190036239	32.31214079370261
O	49.85967164490549	103.10521470376138	31.771148219616308
O	51.04562452028021	103.65839766461866	32.284797804035335
O	50.88195805815244	103.70342518204185	33.58651891212583
O	52.22372038016263	102.758816976308	31.97518023443243
O	51.96818441983028	101.78576000365656	30.81355838260786
O	52.101024161842005	100.61591243722553	30.29321411062742
O	51.70082351251156	102.8123088351892	29.89906058828728
O	51.15648962973862	102.24550123216122	28.687671423376205
O	50.607190286632175	101.0540026404476	28.63194075729293
O	50.18848642666631	101.01889944170024	27.37000252487293
O	49.01391866748401	101.69162179706055	27.713280693128645
O	49.82695340763564	103.1945701870264	28.300288893336468
O	50.30445489141232	99.74307731858488	26.741042010484424
O	50.90884784177192	98.59676105262655	27.163659832993194
O	50.705729480051666	97.48971488259313	26.41717144045024
O	49.844119604411134	97.52874148804872	25.44748462381561
O	49.710842378798176	98.69742735023107	24.85254110491902
O	50.304427654056084	99.75769857369322	25.425330733675633
