100

O	-0.42135437441538404	7.547417372353846	-7.7309362168969225
O	-0.509861972415384	6.098220912353846	-7.926349526896923
O	-1.949641762415384	5.869831102353846	-7.606012966896923
O	-1.995391738415384	4.484775482353847	-7.120702316896923
O	-0.751684363415384	3.8695652223538466	-7.680128046896923
O	0.10885545758461612	4.1063974123538465	-6.555957416896923
O	0.04695566758461611	5.623081792353846	-6.691441826896923
O	-1.129725576415384	2.6625790023538465	-8.138102736896924
O	-1.262918414415384	1.6717289883538464	-6.968319066896923
O	-1.668619610415384	2.6235106823538463	-5.842896946896923
O	-3.016213342415384	2.6020657723538463	-5.510329616896923
O	-3.2273813024153837	2.2894454723538464	-4.152947266896923
O	-3.046465782415384	3.4698006423538463	-3.386579036896923
O	-3.022814672415384	2.8499990123538463	-2.057560702896923
O	-2.3935604424153842	1.6160835803538465	-1.793144403896923
O	-1.8816589574153841	0.7956398483538464	-2.755814506896923
O	-2.611295392415384	1.1028781773538463	-3.9190979268969226
O	-1.152108406415384	-0.44291723764615354	-3.064179366896923
O	0.07928983758461605	-0.8462709776461536	-2.385636881896923
O	0.40322296758461595	0.023022654353846428	-1.514675170896923
O	0.4099247875846159	-2.2299401176461533	-2.0700924088969233
O	0.37862036758461604	-2.7195052576461536	-0.718460372896923
O	0.14321817758461597	-3.792361287646153	-0.00382878689692312
O	1.0124720175846158	-3.9578474676461535	1.0129335531030772
O	1.3014857175846162	-2.7265978676461535	1.6090174431030768
O	1.0999269775846159	-1.5878656176461536	0.39769498310307694
O	0.791913607584616	-4.975907927646154	2.048688203103077
O	1.474360217584616	-4.873346637646154	3.268558983103077
O	1.2267437675846162	-5.866160567646154	4.079710883103077
O	0.8137361375846162	-6.809437327646154	3.240285903103077
O	0.576924787584616	-6.295154797646154	1.9927177531030769
O	-0.09308360241538405	-7.076617107646153	1.1236796431030769
O	-0.173327022415384	-8.435720747646153	1.4996779731030772
O	-0.08112530241538396	-8.828363207646152	2.734927423103077
O	0.4947116375846161	-8.036523187646154	3.646167033103077
O	-9.307878812415384	-9.167385377646154	0.5248369031030771
O	-5.825234242415384	-9.606984277646154	-0.922749626896923
O	-5.538643382415383	-6.600258827646154	-3.158370526896923
O	-8.012987242415385	-4.211707867646154	-4.718577616896923
O	-7.6428044124153836	-1.2770231376461534	-7.155383096896923
O	-7.8854506524153845	2.4838288123538463	-7.767501026896923
O	-8.211962332415384	4.367658892353846	-4.421083056896923
O	-9.173062712415383	1.3373871933538464	-2.419499175896923
O	-8.126899322415383	-2.1206717476461536	-1.329434672896923
O	-5.852379472415384	-4.1678980976461535	0.9054526831030769
O	-7.3564955224153845	-6.708162667646154	3.2062907831030776
O	-6.094258722415384	-9.262771977646153	5.670203893103078
O	-7.572194692415383	-8.384991687646153	9.030782973103076
O	-2.480684212415384	-7.345943617646154	10.051223773103077
O	-2.782167822415384	-6.246649377646154	6.422044633103078
O	-5.002401472415384	-3.1839574776461537	6.275558063103078
O	-5.034784562415384	-0.7476474276461537	3.4864292431030774
O	-8.055347572415384	1.3752814253538463	2.6596316431030775
O	-7.778625082415385	4.685997742353846	0.9017057531030768
O	-10.926122332415384	6.283949522353846	-0.388870236896923
O	-11.333587952415384	9.226223912353847	-4.634879856896923
O	-8.042814372415384	10.817933092353847	-3.581308206896923
O	-9.774717042415384	14.162385722353847	-3.526082576896923
O	-5.288740182415384	12.917934322353847	-7.339784256896923
O	-1.555075955415384	13.804431222353847	-1.122464550896923
O	0.8209397775846159	10.928195362353847	-1.7009213739969231
O	-0.311278592415384	9.245456922353847	1.527361953103077
O	1.8531108575846158	11.507498822353847	3.725596183103077
O	5.0602874275846155	10.037179342353847	2.272073103103077
O	3.6185288575846157	6.555710772353846	2.6670499931030776
O	2.6310227475846157	7.197358352353846	6.2651177831030775
O	5.973135127584616	8.808021642353847	7.239353403103077
O	8.275374637584617	6.147865262353846	5.738450293103077
O	6.280163227584616	3.0419292723538467	6.7671798731030774
O	6.877078257584616	-2.8339358876461533	5.482347583103077
O	3.101313057584616	0.7015317823538464	9.692689873103076
O	-3.192049072415384	1.8723510683538465	7.247531013103077
O	-2.425789462415384	-1.0521305476461533	9.557771073103076
O	0.748478957584616	-2.7374265976461536	8.211562263103076
O	1.1908866975846162	-8.766376197646153	7.013612863103078
O	3.536225707584616	-10.000157377646152	4.2693980231030775
O	2.357195427584616	-13.632797377646153	3.8170968231030775
O	4.944054777584617	-14.457355277646153	1.194241883103077
O	3.209941277584616	-12.562822677646153	-1.602954749496923
O	5.002202127584615	-10.336029677646152	-4.065985976896923
O	3.3690247375846156	-13.810112377646153	-8.047810906896924
O	11.501294547584617	5.826691512353846	-4.544832806896923
O	10.602759347584616	6.512863352353846	-8.196704556896924
O	8.456804267584616	3.3682879523538465	-8.533439516896923
O	4.474876557584617	-5.299520457646154	-7.282906086896923
O	6.151980847584616	-3.2129962176461535	-4.542584346896923
O	8.416606587584617	-6.032180177646154	-3.5255585768969233
O	6.838759647584617	-8.182864007646153	-0.793388080896923
O	8.137295127584617	-11.276568077646154	1.057558663103077
O	10.651422647584617	-5.632036837646154	1.915750093103077
O	9.527705647584616	-2.6028728576461533	-0.09762453689692308
O	5.874122877584616	-1.8409984276461535	0.20730144310307708
O	4.186568417584615	1.2595320393538465	-0.7213803518969231
O	5.754188537584616	4.600687182353846	-1.042987080896923
O	3.134806777584616	6.948815632353846	-2.437923416896923
O	5.5625231075846155	7.939826482353846	-5.218282136896923
O	8.495444127584616	8.804501842353847	-2.9128249368969232
O	6.210084207584616	9.475661052353846	-12.108679726896924
O	6.483352897584616	5.631863892353846	-12.241519926896924
O	-18.725122652415386	-4.5736067776461535	-2.898906946896923
