21

O	49.96262150525628	99.02210589187195	25.9357340510369
O	49.35050803137975	100.19366139863546	25.36535143976286
O	50.04122389099906	97.91550482309822	25.3676757054192
O	50.8770486330718	101.73423797126557	30.434251111385883
O	49.463619633152874	101.28511808760268	26.07959735743996
O	52.467343346130264	101.88601794401242	31.021436231589124
O	49.98411832644462	102.67665217061635	29.937983795220326
O	49.8072997710707	101.38503349506004	27.54329485523378
O	54.62532066780736	102.48789052925876	33.11335775070319
O	50.04615942946447	100.83962978484634	31.35653095924627
O	50.449575690146254	100.33353925795798	28.002453182663476
O	51.34486221892551	100.77499459692541	28.983185466624
O	51.88419615495943	99.68008878332158	29.66176679764857
O	52.39306722926509	98.882650140499	28.631439017095797
O	51.14912182591012	98.40528300400153	28.156732533195584
O	50.59603712403758	99.17083037020211	27.200579611431056
O	52.70888163371546	100.64849819473473	31.71541961156299
O	54.08650025827984	100.35099098610958	32.14020336437444
O	54.56827920905805	101.07244065219707	33.35482134391992
O	54.517538405384656	102.69702096497153	31.69591433720218
O	53.07334797295682	103.0378442167749	31.44437193484661
