90

O	3.2691968272153846	-2.144868477244616	0.2367044964615379
O	3.055186357215385	-2.139414877244616	-1.0604355475384621
O	3.1718072072153847	-0.9284153572446157	1.127945406461538
O	0.2658814812153846	1.2956673197553843	0.1742632504615379
O	2.4083755872153847	-1.0533770572446157	-1.5937515485384621
O	2.1497212872153844	1.3140112647553843	-0.8542479814384621
O	2.7965689172153847	-0.07300927924461575	-0.5822799585384622
O	1.0814969272153845	-4.321634177244616	-1.515059170538462
O	2.1867605972153847	-0.22584732424461573	0.5771523364615379
O	-0.05487125678461546	-4.018107527244616	-1.9431274835384622
O	1.2471897472153846	0.9490901227553843	0.9209568164615378
O	1.6818340772153846	2.1982424527553843	1.224728276461538
O	0.7818096972153845	0.8500461787553844	-0.7957653682384621
O	-0.22044803078461545	4.405877782755384	2.5908667964615377
O	0.27493140821538453	-0.3262505492446157	-1.1105210635384621
O	0.11549030621538459	-1.3244991072446157	-0.12417113153846215
O	-1.4655279697846155	-1.7756842972446159	-2.067966733538462
O	-0.9637276687846155	-0.3841234572446157	-1.7888219635384621
O	-0.4710488967846154	-2.672693647244616	-1.8612521335384622
O	0.45551656721538447	-2.415349957244616	-0.9076142565384622
O	1.4191783272153846	-3.3731305372446156	-0.7003412385384621
O	1.6844614672153844	3.5318204927553847	1.2227610364615378
O	1.1797643472153845	4.194947082755384	2.4463819164615375
O	1.7694290272153848	5.590367282755384	2.626314826461538
O	1.6431583672153844	3.6406935527553843	3.752647816461538
O	10.783790047215383	-1.4644672272446158	-7.645830203538462
O	9.209242337215386	1.7381958427553843	-6.314322883538462
O	8.024025447215383	1.1056582587553843	-2.747681793538462
O	6.245957687215385	4.479780072755385	-2.0389573635384624
O	6.160820757215385	7.9921626327553845	-3.528367323538462
O	4.354186777215385	11.176569362755384	-2.4895943035384622
O	-0.46889558578461543	12.546567162755384	-6.092490113538462
O	1.9056724572153847	9.841990282755384	-7.354390633538462
O	3.659829167215385	6.621209572755385	-6.342247713538462
O	3.2817767472153845	2.930224192755384	-5.515385433538462
O	5.438192657215384	0.3963573097553843	-7.366939093538462
O	5.912124097215385	-3.3455144272446153	-7.000739063538462
O	5.1109681472153845	-4.740786397244616	-10.422754623538461
O	3.1602644772153847	-9.876038637244616	-8.751187653538462
O	1.1510294872153846	-6.806182097244616	-7.661907303538462
O	1.5708464872153844	-3.381369727244616	-5.946327953538462
O	0.4838494672153846	-0.8111561272446157	-8.572955183538463
O	-0.5676859047846154	2.7106181627553845	-7.5057826635384615
O	-0.21365076078461542	5.681867312755385	-9.868296173538463
O	-2.3698563827846155	8.791157612755384	-9.477875193538463
O	-10.725962552784615	4.196556762755384	-2.863798013538462
O	-10.869967352784617	-1.8191493272446155	-2.439055593538462
O	-12.781482452784616	-3.5058330472446153	-5.300135753538462
O	-9.155455882784615	-4.506759147244615	3.143193146461538
O	-6.385616312784616	-4.5415285372446155	0.5721645864615379
O	-7.926569772784616	-5.9908706272446155	-2.5615422635384624
O	-8.136897462784615	-4.131993407244615	-5.866741063538462
O	-7.862487092784615	-6.529783787244615	-8.823325823538461
O	-4.737613402784615	0.6923966937553843	-9.394547373538462
O	-3.5988902727846153	-2.9483959772446156	-9.359253033538462
O	-3.7910642027846153	-4.171265817244615	-5.770712433538462
O	-2.5203440127846157	-7.288760947244615	-3.9110975035384623
O	1.1445912372153846	-6.801277287244615	-2.737054983538462
O	1.5362417572153846	-6.372483977244616	1.0311179564615378
O	5.075456087215384	-7.637769997244615	1.492997186461538
O	5.019737757215385	-7.1968746372446155	5.254579956461538
O	5.361029787215385	-3.4296167772446156	5.064336596461538
O	3.4115607472153844	-0.9253908972446157	7.189638796461538
O	3.1231161672153847	-0.38568558724461577	10.991670726461539
O	5.287867047215385	2.769315742755384	10.780455726461538
O	8.161470517215385	0.5876098906553843	9.573845926461539
O	-10.798187652784616	-3.799506807244615	10.243657926461537
O	-12.489780552784616	-0.5107511572446157	11.182680426461538
O	-7.686056032784616	8.714573672755384	8.429689036461538
O	-6.720232382784616	5.831288002755384	10.719068926461539
O	-2.9358650527846155	5.771221172755385	11.092438326461538
O	0.10126604421538454	3.374738612755384	11.031713526461537
O	0.7660667672153845	4.527929422755384	7.453130856461538
O	-2.5558482927846153	3.025435942755384	6.265482246461538
O	-1.9843158727846155	-0.2533989252446157	8.157715326461538
O	-0.2614841657846154	-2.8608418572446155	5.931390626461538
O	0.8228570672153845	-6.427318667244616	6.6723750164615385
O	0.5198224172153845	-9.483267937244616	4.429333916461538
O	-3.1224597127846154	-6.510277497244616	9.092990026461537
O	-5.191169732784616	-4.891556447244615	6.345570016461538
O	-6.262689872784615	-1.2746160972446157	5.841910976461538
O	-4.929449272784615	0.3323117797553843	2.7484914464615375
O	-5.5385493427846155	3.6699897627553844	1.0898359164615379
O	-9.314923422784616	4.860897702755384	1.531129606461538
O	-3.5621817127846156	13.585288262755384	9.945121926461539
O	10.064728347215386	-4.208556717244615	4.699196406461538
O	9.910541847215384	-1.0826459672446158	2.5124417664615377
O	12.433889347215384	1.8197367427553843	2.5419839464615377
O	13.178832747215385	4.810492312755384	-2.767902693538462
O	13.093980547215384	5.329552242755384	-8.612149593538462
