81

O	3.3327467247383336	0.1854668661833344	0.36050282754166696
O	3.3825740747383337	-0.11321351081666564	-0.8474523957583331
O	4.425150194738333	-0.22927587781666559	-1.777612571458333
O	4.021123514738334	-0.22593998981666563	-3.0251805224583332
O	4.7344090247383335	-0.6196473208166656	-4.200170732458333
O	4.5187310847383335	-2.0704630308166654	-4.393674992458333
O	5.499500844738334	-2.8962200808166654	-3.947523372458333
O	5.382312554738333	-4.158426000816666	-3.4515829524583332
O	4.232731054738333	-4.764509510816666	-3.8758484624583334
O	3.1678764947383335	-3.9335723908166655	-4.087073952458333
O	3.233676944738334	-2.5755763608166653	-4.212243662458333
O	2.2100421247383335	-0.5863523908166656	-1.372785491458333
O	1.1663153647383333	0.3085165191833344	-1.174481251458333
O	0.5851160247383334	1.4760424261833345	-1.533801815458333
O	-0.8965215592616667	1.7084989951833345	-1.242636770458333
O	-1.2339758142616666	0.7379601693833344	-0.38108543345833307
O	-2.4847970552616663	1.5673136181833343	0.18936983754166692
O	-3.0196014452616664	2.098076919183334	-0.823943450358333
O	-2.1137685752616666	2.4422407791833343	-1.9210557124583332
O	-0.35168849466166663	0.6358614471833344	0.7661748375416669
O	0.8054937347383333	0.14273241118333435	0.06020776654166693
O	-5.745513335261666	-3.9735706908166653	-8.660196692458333
O	-4.281818705261666	-0.5144513408166657	-7.938251782458333
O	-0.5585256322616666	-1.4054136308166654	-7.955894662458333
O	1.6332152847383334	-4.289725900816666	-9.236547032458333
O	5.446949284738333	-4.725329070816666	-9.111940062458332
O	8.512674434738333	-6.435312350816666	-7.665349262458333
O	7.429100424738333	-8.741090760816665	-4.822108552458333
O	3.697735284738333	-8.672151120816665	-5.5425847724583335
O	0.6708665847383333	-6.439390620816666	-5.953900862458333
O	-1.7305129852616667	-4.182809580816666	-4.152344502458333
O	-5.372893045261667	-4.489505300816666	-4.547264072458333
O	-8.454402245261667	-2.6122339108166654	-3.3670313124583333
O	-10.535804515261667	-5.150927910816666	-1.495435237458333
O	-13.079865415261667	-1.5621988808166654	2.261082057541667
O	-9.279384095261667	-1.9476032708166655	2.5316004775416667
O	-6.157574075261667	-1.9605446108166653	0.449256567541667
O	-4.627206585261667	-5.477236660816666	0.616595907541667
O	-0.8023310882616665	-5.938324270816666	-0.24388510945833308
O	0.40886557873833335	-9.324885370816665	-1.443481938458333
O	4.034637084738334	-10.329068870816664	-0.948010744958333
O	5.274358244738334	-13.369537270816664	-2.858449872458333
O	11.318760484738334	-12.509064470816664	-1.276031859458333
O	6.856237294738333	-2.8702783208166656	7.553906567541667
O	4.568265484738333	-4.953126020816666	9.790178097541666
O	2.2756047047383334	0.07656983118333438	10.238593297541668
O	0.6988060747383333	-1.9001503808166653	13.130449397541668
O	1.5712743647383334	6.358228669183334	8.965971257541668
O	-0.7588796422616666	4.166090809183334	6.934263797541667
O	-2.4352957952616667	1.8647601191833343	9.465364297541667
O	-2.1600956852616666	-1.9466654508166656	9.370470997541666
O	-5.361166385261666	-3.6146920708166657	10.581694797541667
O	-1.2570416912616666	-6.9750505608166655	4.687018367541667
O	-4.640499415261666	-5.350842680816666	5.281900167541667
O	-4.1716550952616664	-1.5923142408166657	5.460643297541667
O	-6.490803035261666	1.4477183801833344	5.420156257541667
O	-7.223164885261666	2.4844806791833345	1.7988398175416669
O	-5.6694234852616665	5.758459839183334	0.638542867541667
O	-8.252399595261666	6.975708289183334	-1.972830892458333
O	-6.363956865261667	10.228650289183335	-2.685223322458333
O	-3.6191318352616664	8.547231779183335	-4.719065512458333
O	0.13121797173833344	9.329071789183335	-4.395105972458333
O	-0.014319901261666601	11.056017529183334	-9.641930532458334
O	5.748080054738334	12.369244129183334	8.943301717541667
O	13.540671784738334	5.608877259183334	0.9927427075416669
O	5.8131424047383335	6.864069239183334	-4.522309052458333
O	5.823573244738333	6.333368169183334	-0.7243055704583331
O	3.6808535847383332	9.464409429183334	-0.08313669845833305
O	-0.07357743626166663	8.750672599183336	-0.11014603445833304
O	-3.1662240752616664	10.905820829183336	0.447684067541667
O	-0.3815773105616666	12.856386329183335	3.5624016975416666
O	0.7380112147383333	9.554844539183335	5.069121827541667
O	3.8977667047383333	7.559040889183334	4.549737207541667
O	3.3449317147383337	4.145684079183335	3.120984827541667
O	5.815768054738333	1.2570639721833343	2.9363609175416667
O	8.579893874738334	0.9593607521833344	5.4642240175416665
O	10.471039784738334	-2.0897055408166656	4.116023777541667
O	16.940158984738332	3.5888719191833345	-1.718294981458333
O	-4.850189105261666	5.368603879183334	-9.418710652458333
O	-5.597753875261667	-7.360876510816666	-13.284856302458333
O	-5.809473155261666	-11.175228370816665	-13.884487202458333
