22

O	51.025506157720706	98.19540546253857	29.249721389907016
O	49.7082443103268	98.84384906848109	25.196681011837118
O	49.9465983175521	100.01314384461011	30.411779573114547
O	52.673216925343134	103.09688240554813	30.650354262264067
O	50.17030697114511	97.60137954661609	25.508943553046517
O	50.69654194814122	102.06497287031492	30.356425353412508
O	50.3479733256293	97.44695763064014	26.818609346614238
O	50.86595705955166	98.37781562333899	27.726834846682646
O	50.81848524429028	100.5947078780452	28.07079028015962
O	51.09186956962172	100.65716658649531	29.750232436462603
O	50.294416537153545	101.89187319227783	27.67585231937879
O	49.56221444941937	102.1556775755893	26.555171055857354
O	49.350556362261734	101.05942019621556	25.799146042809095
O	49.82451585703346	99.79873948618743	26.155429389905706
O	50.46509472656841	99.57202161068902	27.33510456841861
O	52.56624737039605	100.63996664426412	30.490342771673053
O	53.3281471601632	101.80994862765539	30.15550624709019
O	54.615162095815904	101.71897639777636	30.899416473193657
O	54.535971143165895	102.39825873591151	32.15634298886158
O	54.141471296170145	101.4936917989436	33.20415060565712
O	53.69266377327586	100.22843037348247	32.5372421772755
O	52.352469057170545	100.62977733229681	31.908258992083297
