25

O	51.55800318882262	96.95408329944684	26.938731107898565
O	50.25542586378408	97.12997670667899	26.966232714372165
O	52.52406024913355	97.53449639063055	27.94541263186981
O	51.58469803788409	101.06043497956972	28.938294012971834
O	49.766543617074035	98.13971675386897	27.75597157091494
O	50.65177439987186	99.31508668452189	29.769219451109574
O	50.85977965766482	98.18315303017921	28.72439196951669
O	49.55909699442969	98.08687042929348	24.234256472290166
O	51.97542454062956	98.70559689643088	28.253331672356982
O	49.09837165197102	99.24370894152575	24.10713301696073
O	52.35254750133148	100.03523367931098	28.939857130824745
O	52.76103090772476	100.12814697545384	30.230625414893314
O	50.6126371394439	100.39421203690338	28.808062500438293
O	54.18067644375617	102.76535614449173	31.4089291852673
O	50.19467441061507	100.39603059054394	27.55707305601461
O	51.10213055125222	100.17083046986691	26.498481493900385
O	49.05826737656385	101.4152470605704	25.629241090438526
O	49.45511571697642	101.50148621756504	27.078806928417677
O	49.251270313269565	100.15340735276375	25.174427123303698
O	50.26371715548129	99.4180242814574	25.692440312750616
O	50.45166499279523	98.16084206893761	25.169833169597048
O	52.8497540085214	100.64621126258095	31.456259441742358
O	54.089837500054195	101.39153408253621	31.76993274847257
O	54.39231419458192	101.39662290126367	33.26517847232539
O	55.376258852468396	100.7720391031716	31.334493120754907
