20

O	51.427127091202934	97.1447344677285	29.286393760952915
O	51.122604298819894	98.43444675863431	29.79848548986263
O	50.3556949377757	98.62657334257892	30.94832857801579
O	52.60448245660893	99.35257703041731	29.904611626426767
O	50.33324446331965	99.57730001367844	28.673971259682926
O	50.041450788596066	100.87128362054372	29.089794866508072
O	49.47492791642104	101.67526856858076	28.10595648966439
O	49.21173617603243	101.06847831544414	26.86506138105256
O	49.84216450888011	99.86709220734151	26.554712564786072
O	50.58864241784386	99.15812189851421	27.43377900478753
O	50.96572683875013	97.85942529372512	27.114240854068992
O	50.46166855999122	97.22234642777634	26.013833745868425
O	49.8803321409373	98.0093816366645	25.126178948621067
O	49.515084825821454	99.26013251241535	25.410063462854033
O	52.106769527220564	100.71555562703757	30.20765190748682
O	53.7068132619603	100.84712322453154	31.848805403381114
O	54.601535718613036	100.05184196949288	31.109675870215646
O	52.425781166560135	101.55502466654109	31.14444338460858
O	54.47663063732125	98.70190211320173	31.473691932364154
O	53.14912087530231	98.5739803247114	30.96430077209987
