95

O	-0.35729751119275344	-0.36149952578260924	2.231487158434783
O	4.5496761508072465	-1.3894477637826093	-5.711941791565217
O	-3.7610399591927535	1.0616196882173907	1.598798538434783
O	-4.075999229192753	-0.5799579137826092	3.161941648434783
O	3.7666765108072466	-0.25606505678260927	-2.0208140215652173
O	3.4734945208072467	-2.532623793782609	-2.282116361565217
O	-1.7064347251927534	0.2807655072173908	2.8555611784347827
O	0.3505269108072466	-0.9532327837826091	0.2955355364347828
O	-0.07918552619275343	-3.531490763782609	-0.13396484956521715
O	-1.8844279091927534	-0.5059548937826093	0.3413976484347828
O	2.4256677608072468	-1.6165591037826093	-0.19077585656521717
O	4.115268450807247	-1.1537377637826092	-4.289180581565217
O	1.3267753708072467	-2.1191984837826094	0.32922301843478274
O	0.8447965608072465	-2.7511042537826094	-0.8339692465652172
O	-2.7045537791927536	-1.0073332037826093	1.3143752984347827
O	-2.4017445391927534	-2.215976393782609	2.017973108434783
O	-0.9026832261927534	-1.4842263637826094	-0.05674200456521716
O	-1.0728966531927535	-2.8106207637826093	0.5176754884347828
O	1.8501648708072467	-1.1149957037826093	-1.5504706425652173
O	-2.9865159991927532	0.022894886217390775	2.314680558434783
O	2.6855080008072467	-1.2360990837826091	-2.5295779115652173
O	4.830037260807247	-0.24918396578260926	-3.7594310415652172
O	-3.6503714791927533	-2.4626315837826094	2.1421380084347827
O	2.7740176708072464	-0.8728366637826093	-3.881328041565217
O	0.44107075080724667	-1.3009116137826093	-1.0073651775652173
O	-2.0233794091927537	-3.156204093782609	1.249786218434783
O	-10.773339649192753	2.1461828762173907	-6.909819541565217
O	-7.441924759192753	3.253349636217391	-5.338401031565217
O	-7.4031946991927535	0.006923251217390791	-3.426862471565217
O	-7.442201979192753	-2.112623503782609	-6.593676621565217
O	-4.481560889192753	-0.12937526978260927	-7.918492831565217
O	-2.5715241691927533	-0.44326722478260927	-4.705830101565217
O	-3.2049331391927534	-4.209196333782609	-4.623488831565218
O	-2.1582466991927536	-4.48945621378261	-8.180918941565217
O	1.0566536608072465	-2.6464136637826092	-7.449493841565217
O	1.7177987108072466	-4.87262134378261	-4.462359751565217
O	1.5765012308072466	-8.02231216378261	-6.315262131565217
O	3.9621356208072465	-6.481990473782609	-8.798276501565217
O	6.355340530807246	-5.268526123782609	-6.069208591565217
O	6.484227810807247	-8.68398084378261	-4.376421801565217
O	10.763600560807246	-7.16868588378261	-7.154362411565217
O	11.081633260807246	-7.664251333782609	-3.405778611565217
O	8.504439770807247	-8.84927233378261	6.392298548434783
O	7.081701430807247	-8.20998102378261	2.932264678434783
O	4.388907930807247	-5.707887403782609	3.9329818984347833
O	6.761074720807247	-3.607470053782609	6.114423218434783
O	9.423322860807247	-3.8747128437826093	3.399903558434783
O	7.036545640807247	-2.684735513782609	0.7359247584347829
O	5.670150650807247	0.1109841102173908	3.0076397484347828
O	9.102056110807247	1.435992695217391	3.682264408434783
O	9.771464760807246	1.5113576262173907	-0.09683899056521716
O	6.695674110807246	3.384269656217391	-1.316446384565217
O	6.845353260807246	5.759008886217391	1.6676267684347827
O	10.331223060807247	6.810146416217391	0.8238802084347828
O	9.500236860807247	7.0136689762173905	-2.881685321565217
O	6.703849360807246	9.44545101621739	-1.9299719015652173
O	8.851696410807246	11.990576876217391	-0.09533929156521714
O	1.9663292308072466	8.40596061621739	-2.320064771565217
O	3.6493343908072466	7.306796396217392	-5.540117611565217
O	2.9807399508072465	3.6691138362173907	-6.502006601565217
O	5.607444570807247	1.6703111862173907	-8.371110271565218
O	3.311402560807246	1.6664660162173908	-11.404286381565218
O	0.36762738080724655	6.226898096217392	-10.343401791565217
O	0.08099905980724653	8.96767235621739	-7.709100901565217
O	-2.5618474591927534	8.29180988621739	-5.068496671565217
O	-7.739552889192754	7.10351538621739	-0.2026705395652172
O	-12.304989739192754	4.7947732662173905	-0.7992263135652171
O	-12.758731039192753	4.282997066217391	2.938733278434783
O	-9.064308599192753	3.7679432662173906	3.8290398484347827
O	-8.335040069192754	7.38038286621739	4.858930598434783
O	-7.249648889192754	6.688071036217391	8.447070148434783
O	-4.490893609192753	4.164356566217391	7.5573993484347834
O	-3.4241607691927536	6.295706206217391	4.558017108434783
O	-2.9966420591927534	9.293798576217391	6.885179218434783
O	-0.8978113218927535	7.28474270621739	9.347706918434783
O	1.4422029108072465	6.38710198621739	6.438410198434783
O	1.7359799808072465	10.038738386217391	5.460786778434783
O	2.1155994608072466	11.38661457621739	9.004741548434783
O	6.370095410807247	9.82491476621739	4.582484138434783
O	1.1733209108072467	0.35558045621739076	10.091994118434783
O	2.2489643508072468	-2.910202703782609	8.468779668434783
O	-0.07800022219275338	-4.884335693782608	10.762993618434782
O	-2.9629023291927536	-2.5208565437826094	9.991492918434783
O	-2.3512011591927537	-2.7221603037826094	6.334649238434783
O	-2.4144024091927534	-6.50566444378261	6.547975548434783
O	-5.750165809192754	-6.44963553378261	8.372148098434783
O	-7.127569389192754	-4.317686803782609	5.5215841484347825
O	-5.8750199891927535	-6.77723827378261	2.9097773684347827
O	-7.5189811291927535	-9.68417622378261	4.702932678434783
O	-10.598691129192753	-6.984758683782609	1.0350304784347828
O	-10.046587839192753	-10.69082242378261	0.4571584184347829
O	-11.095004239192754	-6.030410473782609	-5.151296081565217
O	-6.039408009192753	-9.93276692378261	-5.551861741565217
O	-3.3203889991927533	-11.379237423782609	-7.784364731565217
O	-0.23675341819275342	-11.20546552378261	-2.997282911565217
