26

O	60.65632647588949	44.711452688780255	32.715279608202444
O	61.662925771308544	44.155804519833865	31.29198520605175
O	62.13998044028528	44.863296999533524	32.65061253343533
O	60.59024625793984	48.32014179834353	32.66179675019052
O	60.324933620331535	46.84365266177143	34.41439654568223
O	61.27867105572735	47.29683833783247	33.437973268283635
O	62.69443852183601	47.4061968048498	33.691045750804484
O	63.67663693922732	47.388822909682595	32.57596117560249
O	63.89574709986758	46.09920485066445	32.1904794207894
O	54.48878051063752	45.70204752145194	29.168137366215447
O	63.41248336011702	45.14385072124265	32.874986032849534
O	54.81700778771358	44.5762622558482	30.724163437013956
O	64.77074984512087	44.37875872245504	33.02449579184212
O	65.10596733201699	44.37376446327835	31.490790200548584
O	64.03316911965229	44.60781175274438	30.54876977474515
O	63.357392071694484	45.8522633793845	30.792341126552365
O	63.4637192507123	46.26104169791993	29.607070337999712
O	62.50114600207668	47.20560145122848	29.483404785493025
O	61.70226781648213	46.96944418616581	30.548315424716677
O	60.529614043161075	46.27176169962136	30.09054263938586
O	59.3852074519103	46.25587972431055	29.39029506775894
O	58.04435857682761	45.63835398547352	29.699837890296642
O	56.78094142193122	45.644378626124144	29.38498663252465
O	55.495892641384046	45.544561179132835	29.951231263853042
O	63.169205116918256	48.43271742675741	30.112524114053112
O	58.18119896646791	45.989166437433745	31.15789326420432
