25

O	63.53964842664067	48.14352878638543	31.987008856846327
O	64.59338577272594	47.29911936826299	32.900754805311784
O	60.24313667535759	47.81580770216881	32.609359933290214
O	60.35950147921308	46.115929609810074	34.236416146584254
O	60.794122081570244	46.486871417205165	32.92129704742858
O	62.20353411836539	47.03159367863133	33.42634331324636
O	62.49702779497036	46.97529721416632	31.86520935570121
O	62.90911072417488	45.563379676705225	32.14907283642537
O	53.578965587404795	45.26976488929355	29.19832046507425
O	64.08005366074478	45.82826248194965	32.90010368000833
O	54.2151434779205	45.45079821087777	31.231492075939816
O	64.93779913635605	44.66648579414276	32.736303463119654
O	65.25253221094358	44.944077217466436	31.25489941627402
O	64.15822234023845	45.16375190223995	30.338817693945117
O	62.78892184876052	45.07074161632196	30.851275728237333
O	61.83044405278297	45.28760115484996	29.97257900985914
O	61.76505796967354	46.71741889531413	29.661217885712365
O	60.216449199264375	47.012723546520625	29.672938009262893
O	59.3898335615957	45.81667619813804	29.82769286689737
O	58.1499171427991	45.626383194727296	29.03419094947794
O	57.04140283156032	45.59370615104808	30.0835373910461
O	55.81914555308542	45.112207225518326	29.432615440326884
O	54.53991096259871	45.61009270383441	29.914111554157305
O	61.616743099976205	46.47681362639588	28.09295302081223
O	56.85260703696934	47.072825643019016	30.22583065656147
