30

O	62.11860942586245	45.948927063764685	27.42296385005845
O	64.73429951492662	43.918311271578276	33.51323345116712
O	66.07121982217427	46.195054557206724	33.81480556646136
O	62.63767677818263	44.57568340761432	35.37878793679444
O	62.240293722556714	47.15667051632075	35.199770522404194
O	56.038948783117455	45.55209760672682	29.829067100921506
O	57.12760325503229	45.16338997400043	30.37156487280463
O	59.31910876474127	45.45123951654402	29.125352180117034
O	59.6595531568573	46.755532875308276	28.670384054387966
O	59.57948718714771	45.777045848912884	31.14303599625449
O	63.996240164667284	45.73702212011606	31.696573729139377
O	61.606412888766165	46.10154546058389	32.85841659467269
O	62.29355304494068	44.76033617510598	28.186698651265964
O	62.446114947973584	44.85311210641599	29.587388421831577
O	64.96057870365996	45.12407386577852	35.30661213777681
O	64.27233121248149	46.361448337462654	35.50821555532807
O	54.67318659484702	45.398681922708874	30.193582767667433
O	58.534616482640736	45.542902051426445	30.22242464231377
O	60.659573379569615	47.09615583507383	29.586277738545135
O	63.07201194386031	46.50997554453684	30.9491242626656
O	60.71472950601657	46.2616764580745	30.636634197560074
O	61.81410697424336	46.36320541583818	31.523915963555122
O	53.651701286714584	46.00875061090247	29.86448613335556
O	54.227780867681474	44.19648915662002	30.65230931507278
O	61.60531630181554	47.955775393006164	29.109791097883065
O	63.14175721597213	46.10356026898319	29.618769553787633
O	63.95126360168592	46.050530522033846	33.03599115675971
O	62.76558320292381	45.83357060599587	33.500369709701694
O	65.00112023618179	45.26519301441525	33.786588711934264
O	62.905985054052955	45.93388036783407	34.99956663454326
