95

O	0.45948905379411775	-3.129882464955882	-2.558507744932353
O	-0.8130304619058822	-5.502025594955882	1.4405796150676478
O	-2.828360206205882	-4.191279644955881	0.3306245250676476
O	-0.3558413602058823	-1.7552363049558821	3.0655086550676476
O	-2.8774089762058823	-2.097947774955882	2.327207195067648
O	0.11171040379411779	4.405077645044118	-2.3419593049323524
O	-0.20678288920588228	3.2150770550441177	-2.1040579249323526
O	0.06872803079411771	0.782320948044118	-3.0189791249323523
O	1.3907037937941178	0.38458897404411796	-3.4671191849323524
O	0.37326997379411775	0.888112690544118	-1.0987023619323524
O	-0.2264655582058822	-3.6203021549558816	-0.5331374329323525
O	-0.4811525792058823	-1.133703414955882	0.3663020350676476
O	-2.373127466205882	-4.417712094955882	2.4877519550676475
O	-1.2799835802058823	-3.707815754955882	3.0814816650676473
O	-0.2579067642058822	5.736278235044118	-2.0761893149323525
O	0.4421263137941177	-2.6486449649558823	-1.1935122269323526
O	0.2271375537941177	1.852114466044118	-2.113806074932352
O	1.678151303794118	-0.559953704955882	-2.4863601449323527
O	0.4191486737941178	-1.445278334955882	-0.6538128790323524
O	0.9475134037941176	-0.35878465495588197	-1.3533689679323526
O	-0.6812291462058823	-3.389879684955882	0.6976466150676475
O	-1.0139730952058823	-2.1903964349558818	1.0084204450676475
O	-1.7073751382058822	-4.428110154955882	1.1409982650676476
O	0.40212255379411765	6.789612935044119	-2.0492021249323527
O	-1.5424268092058822	6.201628295044118	-2.1183696549323523
O	2.3408558337941177	-1.677421674955882	-2.857200724932352
O	-1.469763582205882	-2.320452504955882	2.4364486750676475
O	-12.546641556205882	-3.426125724955882	-0.05753915893235251
O	-9.509187686205882	-1.523730974955882	1.3459123750676476
O	-7.280326356205882	-3.5745871249558814	-0.8915611529323525
O	-9.044430066205882	-2.363037634955882	-4.048385774932353
O	-8.593535986205882	1.277768775044118	-2.9601672749323527
O	-4.981193706205882	0.687744146044118	-2.1509621649323525
O	-4.424043526205883	-0.9667366349558819	-5.580614544932352
O	-6.271265136205883	1.862378738044118	-7.278219804932352
O	-4.0973159662058825	4.438260805044118	-5.533234504932352
O	-0.9672868702058822	2.544588465044118	-6.4399078249323525
O	-1.597364750205882	2.565806425044118	-10.083788504932352
O	-2.197832206205882	6.320478715044119	-9.754412324932352
O	1.0289500637941176	6.949293515044118	-7.819217614932352
O	3.171368263794118	5.000878265044118	-10.347885374932352
O	3.6534619037941183	10.301002555044118	-10.250661884932352
O	6.662631793794118	8.151987345044118	-9.323375244932352
O	12.344122743794117	0.024819798044118047	-6.534988954932352
O	8.804179683794118	1.197108108044118	-7.208340594932352
O	7.219081343794118	-0.761014154955882	-4.3329517849323524
O	9.681639343794117	0.39185916704411805	-1.6520820559323526
O	9.516425243794117	3.890736245044118	-3.127792254932352
O	5.741970783794118	3.9828919950441177	-2.8806878849323523
O	5.749751363794117	2.476119045044118	0.6280560650676474
O	8.181475253794117	5.037366635044118	1.8903136150676476
O	5.917736993794118	7.803870505044118	0.4877849050676475
O	2.578555403794118	6.781637075044118	1.9771826350676476
O	4.216233813794117	5.825795885044118	5.261847075067648
O	5.686476683794117	9.282546775044118	5.711704275067648
O	0.7016809837941177	8.951708335044117	7.347105815067648
O	2.805772593794118	10.273386565044117	10.250470955067648
O	-3.8461561262058823	4.118723025044118	9.879120355067649
O	-2.4461840662058822	5.269721785044118	6.560107395067647
O	-3.3699369962058823	8.148999175044118	4.244399015067648
O	-3.679600836205882	7.231677885044118	0.5934895750676474
O	-2.7394995762058825	9.754819715044118	-2.2020651549323524
O	-6.397554186205882	9.720730955044118	-3.156534574932352
O	-8.714289906205883	8.278818465044118	1.6706132450676476
O	-7.680310476205882	7.2685292250441185	5.214317115067648
O	-7.375115066205883	3.5292094550441178	5.766649895067648
O	-7.049414326205882	-3.6398765249558815	6.912038585067648
O	-9.877637716205882	-7.405713384955882	4.807123075067648
O	-7.398087056205883	-10.112897194955883	5.807718045067648
O	-4.218678156205883	-8.092018884955882	5.4683377550676475
O	-3.823704156205882	-6.974972324955882	9.060639575067647
O	-0.3652504272058823	-8.470792104955883	9.628173455067648
O	1.3892472837941177	-6.619783604955882	6.789282875067648
O	-0.5694940982058823	-3.4480512749558816	7.557518235067647
O	0.6533206737941178	-3.5934051849558815	11.196038955067648
O	4.255662263794117	-4.056888564955882	10.071807655067648
O	3.939577803794118	-0.8488047649558821	8.051815165067648
O	2.556463923794118	1.036492720044118	11.037013955067648
O	5.0233294237941175	-0.37887954495588194	13.569842555067648
O	5.027752893794117	4.990025865044118	10.178480355067649
O	7.852766203794117	-4.992075394955882	3.868884345067648
O	8.211038403794117	-4.1953593449558815	0.1842001400676475
O	8.748554573794117	-7.850128614955882	-0.6752122445323525
O	5.782248023794118	-8.908380484955883	1.4528571450676477
O	3.5426102837941182	-6.297213314955882	-0.16495607093235243
O	4.5599301437941175	-7.579836184955881	-3.5446736149323526
O	3.713644303794118	-11.174434194955882	-2.5934863249323525
O	0.2581812537941178	-10.024245794955883	-1.5622086159323525
O	-0.23574097320588228	-8.114403354955883	-4.832852094932353
O	0.6940392837941177	-11.222686194955882	-6.8040676849323525
O	-4.581989016205882	-10.652297294955883	-5.4276856049323525
O	-3.735946016205882	-10.942859194955883	-9.111761874932352
O	-5.549962566205883	-4.1904388649558815	-11.035386044932352
O	-5.0605632362058826	-1.2518915349558821	-13.437852744932352
O	0.35565779379411777	-1.7142167749558819	-11.665326844932352
