26

O	62.245574777080115	47.71218021130883	31.717951753042524
O	54.12159396952906	44.071641511956656	28.721195940446446
O	63.89857762116682	45.5307310435507	34.27135868602034
O	65.59026640533286	46.2496307165874	32.907993340589385
O	56.605072903636234	46.76318971813338	30.17376939776442
O	57.35812884204449	45.925077785929524	28.156982493332908
O	63.41281583242776	47.554253942792656	32.82914552087809
O	60.7258460125643	46.47308530177898	30.84953904516233
O	61.56796805154864	45.3618734580356	28.59730098463196
O	62.24363358580013	45.30612209695236	32.087158394054725
O	59.12092629356672	47.15585602201253	29.45642492052302
O	55.2372264938232	44.99151737405201	29.142753983509753
O	60.3940997736542	46.828269055607144	29.408199095789563
O	60.226470176396354	45.50241297027341	28.962519076144496
O	63.591030054805955	45.497900520307404	31.951453009388782
O	64.17319221839725	45.9835507478777	30.737866281320624
O	61.58559055034421	45.36156913648765	30.80526219537076
O	62.46917256921345	45.44744704164439	29.65193744809283
O	58.552596805159496	45.85071114709047	30.092929264392712
O	64.09260904371874	46.333671495161894	33.042960508029104
O	57.38169053487708	45.53657128892654	29.644142150695906
O	54.763424969509174	46.007257956450594	29.737337690973675
O	65.2341503513649	45.30863716162082	30.970641777486744
O	56.37730255333738	44.594070519070605	29.90856424278046
O	59.96842387374975	45.4260545004478	30.453726929340682
O	63.715997200631875	45.40516103563736	29.701653246312787
