25

O	62.415634471950405	46.1757907729984	28.4077541068567
O	61.1331409612312	46.63175549939232	28.799420096767413
O	60.2540628306071	45.934980653399236	28.085173300351876
O	58.885025940446575	46.09371663069467	28.298200698372895
O	58.330086092403434	46.289697630387	29.52760007528806
O	57.03663015546605	45.90297391969475	30.010688152740048
O	55.84293776798022	45.59870677272704	29.974286407315148
O	54.509188039277674	45.49979985901862	30.36795169512531
O	53.492495617246604	46.145397327211796	30.071781423905833
O	53.97310738962912	44.33820277103523	30.81468973721051
O	59.33211115325215	47.00512418320773	30.185078821766986
O	60.777096869750004	46.93655371303116	30.073964712532394
O	61.71029462544996	47.21111173648838	31.014170385960114
O	61.03187438452839	46.61436716754637	32.037683876347884
O	60.75051151045706	45.297301388299125	32.192059604855416
O	61.13671066428005	45.09418924429624	33.69744701204691
O	60.71905244069867	45.90892573835929	34.67061325035763
O	61.15284144500455	45.647779389663874	35.97500615214042
O	62.39859480277733	45.157095093064775	36.230449899763904
O	63.19283467984329	44.98203146908407	35.1006337801637
O	62.55323118216461	45.09988290877827	33.925447214722176
O	61.716419296425386	44.81628139321334	31.254008381255638
O	63.13453856290016	45.23928323318869	31.11592081430692
O	63.01042713142523	46.634598299570605	30.94017313482038
O	63.68937932690899	47.53144521302435	30.05425659917423
