91

O	3.1186741804043474	-1.7762043386927542	3.167990976850724
O	-2.7399849395956526	1.212483393307246	-5.797235893149276
O	4.2539545004043475	-0.849877268692754	3.272501736850724
O	-0.9611002985956523	0.682060625807246	-6.241454113149276
O	3.7275455004043474	0.374329672307246	3.788893206850724
O	2.3735771104043475	0.22809960030724602	4.4818045168507235
O	1.6714893104043478	-0.16638844469275405	3.333656536850724
O	2.1601927004043477	-0.980493328692754	2.475843106850724
O	1.4142625804043476	-1.5244819486927539	1.3698164968507238
O	0.6695914204043477	-2.525172168692754	1.659809136850724
O	-0.7345444040066523	-2.028069848692754	1.5175264168507239
O	-0.5018441515956523	-0.7902591986927541	1.0524561568507238
O	-0.27777029659565233	-0.7650311586927541	-0.4214932491492761
O	-0.7773069309956523	-0.601454588692754	-1.569554913149276
O	-1.4272170925956522	-0.546865628692754	-2.898617033149276
O	-1.6351848305956524	-0.200289872692754	-4.107731513149276
O	-1.9030668195956522	0.587567282307246	-5.151607563149276
O	3.463551660404348	-2.911703648692754	2.294261046850724
O	2.6305276804043474	-2.221891798692754	4.418105636850724
O	0.2911128104043478	0.314409287307246	2.720104116850724
O	-1.4616930595956523	-2.455966958692754	2.6832865268507238
O	-2.7981455495956524	-0.6567127586927539	-2.382914063149276
O	12.268097650404348	-4.223320178692754	-1.874233873149276
O	9.532977950404348	-1.5261578586927538	-1.792416313149276
O	7.319940550404347	-4.069922318692754	-0.0970774961492761
O	7.459520710404348	-6.489150408692754	-3.014002443149276
O	6.512653640404348	-3.7077263786927537	-5.480956443149276
O	3.675150180404348	-2.606200838692754	-3.264902003149276
O	2.3180334904043476	-6.147623348692754	-2.937078743149276
O	2.7214796304043474	-6.648438388692754	-6.698279703149276
O	0.6975654804043477	-3.4907076386927542	-7.345264543149276
O	-1.9560857295956522	-4.509737458692754	-4.774176743149276
O	-2.6270633895956523	-7.752987528692754	-6.501805633149276
O	-2.9157869095956523	-5.838029788692754	-9.794184063149276
O	-5.298826589595652	-3.236036078692754	-8.367569993149276
O	-7.612465589595653	-5.944217768692754	-6.885900103149276
O	-9.338970969595653	-3.217056788692754	-11.126216123149277
O	-11.238012349595653	-2.917814668692754	-7.8314335131492765
O	-13.348596149595652	-3.4044442086927544	2.246301956850724
O	-10.642139749595652	-4.077522158692754	-0.3492999591492761
O	-7.796062429595652	-2.887187468692754	1.809668846850724
O	-9.325714759595652	0.42743154730724603	2.818056226850724
O	-10.621518909595652	0.859261817307246	-0.7336613311492761
O	-7.227356569595653	0.431162549307246	-2.199346453149276
O	-5.583209629595652	2.666524571307246	0.44807596685072393
O	-7.9580784895956524	5.446212581307246	-0.2562850358492761
O	-7.095410509595652	5.150249401307246	-3.989932853149276
O	-3.3237522895956526	5.293657861307246	-3.8424573231492762
O	-3.4327102195956525	7.960382961307246	-1.140890785149276
O	-5.490763379595652	10.297632061307247	-3.300855783149276
O	-3.3768953895956524	9.460697601307245	-6.355367733149276
O	-0.3483344055956523	10.612325771307248	-4.301855713149276
O	-1.5882808185956523	14.121170261307245	-3.457863173149276
O	5.875527220404347	9.594709421307247	-1.0125266141492761
O	3.1735485004043475	7.601763671307246	-2.7559477431492763
O	2.4878493504043475	6.807620211307246	-6.404288483149276
O	1.7159730504043478	3.137921241307246	-7.102727053149276
O	-0.7239595104956523	2.106729241307246	-9.842477873149276
O	2.2407235504043475	0.656716433107246	-11.702316023149276
O	6.395481480404348	3.632602961307246	-9.521472673149276
O	6.932766480404347	6.390535781307246	-6.936578323149276
O	7.801728140404348	5.114254751307246	-3.456033823149276
O	9.692912650404347	2.663240221307246	3.121249136850724
O	12.513289350404348	-1.4699991286927538	4.391103156850724
O	11.280782150404347	-1.464595178692754	7.993043656850723
O	7.7585034804043485	-0.18443478069275399	7.3390336868507235
O	8.405025180404348	3.514178911307246	8.000884526850724
O	5.836871760404348	3.913467271307246	10.777263376850724
O	2.8097855304043478	2.718113471307246	8.818598026850724
O	3.9844323104043475	4.474671381307246	5.679243206850724
O	4.223399070404348	7.796219581307246	7.692982386850724
O	0.7039055904043477	7.329636401307246	9.042689046850723
O	-0.5387546935956523	7.122797551307246	5.455347226850724
O	1.2768853504043474	10.308880341307248	4.488748906850724
O	0.2869722904043476	12.245552861307246	7.607095296850724
O	-2.2755736595956524	11.920960461307246	1.7855761468507239
O	-4.4497946795956524	2.226380691307246	8.793535386850724
O	-6.2261443495956525	-0.492794778692754	6.796457906850724
O	-6.090535779595652	-2.852377488692754	9.765744076850725
O	-2.3900823795956523	-2.103938988692754	10.322423576850724
O	-1.5969220925956522	-2.664805878692754	6.716159906850724
O	-3.3842805795956523	-5.995273078692754	6.838980116850724
O	-1.3320703115956523	-7.040748748692754	9.861091676850723
O	1.8026106004043476	-6.229383748692754	7.8887833168507235
O	0.6297738104043477	-8.218308438692755	4.883582906850724
O	-0.06704719259565228	-11.260280738692753	7.139710956850724
O	5.018288760404348	-10.810802738692754	5.175729926850724
O	3.081237310404348	-13.945889738692753	4.329637976850724
O	2.3333614804043474	-12.637976838692754	-2.790491553149276
O	0.28858043040434767	-13.138901638692754	-5.969132273149276
O	-3.834433709595652	-10.798868638692753	-2.819492203149276
