28

O	55.19361321968583	45.28485356986533	30.07775998386585
O	54.83610108594898	44.1904462410289	30.551232565329645
O	56.61971674306462	45.3483888410195	29.716396827925927
O	54.38244463989493	45.66988606850323	29.05111334049679
O	57.469372540199856	44.98463725560613	30.67630550818704
O	61.21195000891767	45.53855332666823	28.37034225993458
O	58.75358269951953	45.56009749745674	30.769383626527482
O	60.79696260614851	47.542599646024314	28.847007324366274
O	59.40903241725966	45.943739921701194	29.666838677789112
O	58.550885627582794	46.26534672289615	28.657351757127476
O	57.156021337653385	46.13892751496464	28.76787271263037
O	60.8276698565051	46.338019871238664	29.491883215527157
O	61.725142148580176	46.14037678462901	30.63529673284174
O	62.845627473220816	45.46358857100168	30.24064371659336
O	63.64472730445716	44.811465068781814	31.184229779826676
O	63.906579304385964	45.41668596416337	32.375036235134374
O	62.8545898231593	46.17285453339344	32.788944246597026
O	61.842219176397435	46.58470414015406	31.915676358350463
O	63.104920132476494	46.58498850588523	34.16973621033479
O	64.16934522433165	46.12525098308767	35.15213323139068
O	65.34958499692434	45.88997737468136	34.38864549324838
O	64.58159665854969	44.84449887830391	33.5236850998659
O	62.21183645620283	46.38842189559084	27.79697601014626
O	61.153353232400995	47.406654404994306	27.488611373029062
O	62.00937658239551	46.27967325049207	35.01700976959494
O	63.805807912967246	47.846948062289705	34.0204943334487
O	65.61006483965781	43.96450411796112	33.62124013098305
O	63.49701724829253	44.07160405454691	34.312960575577684
