22

O	64.74406014257356	45.01310105687272	33.64377366177944
O	54.50794668123147	45.36106639317898	28.983941828092448
O	64.60050363659505	44.753052305910636	35.098813709552005
O	54.41747317069117	45.44002406710671	30.89833434367952
O	64.53232657235046	46.07877858789934	35.603686706886286
O	64.51503642781313	47.25278710889228	34.68574019916413
O	63.50236196604315	46.786277795489795	33.828664279341304
O	63.46370291542257	45.609581849221456	33.398560492351834
O	62.622720147676496	45.25753567095694	32.28398550237222
O	63.216194445757544	45.37905512583196	31.169607647419067
O	62.65797676021904	46.39257047994673	30.274073150334225
O	61.57904821842879	46.78528286743125	30.88657064228673
O	60.34259312541358	45.983404629973	31.02652630987086
O	59.308532012040544	45.64383206098249	30.31342135476049
O	57.9204974411963	45.695520760688844	29.904822217028197
O	56.67857176017699	45.42335158030465	29.7451974209776
O	55.35064129305957	45.77501290082246	29.86189678364984
O	65.81534069422214	45.91078902695632	33.403541742529505
O	64.76260805358166	43.79091178134972	32.883790607140654
O	62.4093151124853	47.61029167966929	33.01700140015014
O	63.63360059639024	47.371087322448766	29.90277922901699
O	58.13262358950595	46.980844789897155	29.17191265021675
