81

O	-1.4620053109814815	-2.8862983705185186	-0.13661501314814817
O	-0.3988563187814816	-2.0791348805185184	-0.6168327469481482
O	0.14153050701851838	-1.0335683835185185	-1.1129905991481484
O	0.9599214890185184	-1.6409456105185185	-2.150859122148148
O	0.5660383390185184	-2.9719109105185186	-2.1419305721481483
O	0.11333029301851844	-3.227373540518519	-1.0170188841481482
O	-0.1697058689814816	-4.163129590518518	0.059630320851851826
O	0.2125365030185184	-3.4561421005185187	1.372856317851852
O	0.5723583890185184	-2.1565392205185185	1.4865559878518515
O	1.9646599690185182	-2.0850697605185187	0.9205837778518519
O	2.397804459018518	-3.0994614505185187	0.16898835685185176
O	2.0704144390185184	-1.9830811905185184	0.7990432078518518
O	0.7017810590185185	-2.1426024205185183	1.397139477851852
O	2.8821611690185183	-4.262728680518519	-0.35252181714814823
O	2.0964833790185184	-5.4823953605185185	-0.09964877214814821
O	3.6752646190185185	-4.6775441805185185	-1.3829057061481482
O	1.1548239990185185	-3.9778800305185187	-2.9471430821481484
O	1.9116513090185185	-3.343130740518519	-3.9400003021481482
O	2.889048989018518	-2.6591473605185185	-3.2405819721481484
O	2.3507839190185185	-1.7644920505185184	-2.3896500821481483
O	-0.1824891239814816	0.23847528948148147	-0.5679121369481482
O	-0.47100127198148156	1.6293552994814815	-0.6113399701481482
O	-1.2570121239814815	2.8538880594814815	-0.5538882230081482
O	-2.3751203409814816	3.4276576494814814	-1.0960123651481481
O	-2.843738990981482	4.494628459481481	-0.5775952424481482
O	-1.7444067609814815	5.0681956094814815	-0.3093844181481482
O	-0.9813140339814816	4.102585619481482	-0.002242096148148187
O	-3.363737160981482	5.249355529481481	-11.443844192148148
O	0.044740589018518406	3.8139140794814814	-10.406151522148148
O	-1.7591771409814816	1.6321104594814815	-7.793036862148148
O	-3.2307232609814815	4.776194999481481	-6.190751332148148
O	0.31082166501851843	6.377516489481481	-5.881841462148148
O	1.9634418290185185	3.0098326294814814	-4.647446962148148
O	-0.7088434209814816	2.816069659481481	-2.203626802148148
O	-0.11215373298148157	6.732443959481481	-1.0103505601481482
O	3.454032099018518	5.886347819481482	-0.3232421921481482
O	2.8023850190185184	2.636465819481481	1.7197233278518516
O	0.5570255510185185	4.5486269494814815	4.453027027851852
O	3.189697809018518	7.180412169481482	4.5487324878518525
O	5.925705359018518	4.675083859481481	5.099331317851852
O	3.9745356390185185	2.7053108894814812	7.796005167851852
O	4.455065009018519	5.592718209481482	10.10523040785185
O	8.24595826901852	1.7435986494814815	9.719907107851851
O	7.229806519018518	2.1754968894814812	13.365568507851851
O	1.2386668790185185	-6.4212522905185185	11.605694507851851
O	4.870708189018519	-4.718325150518519	7.5426877478518515
O	4.1097651890185185	-5.688398710518519	3.9287214178518517
O	7.970769869018517	-2.3277612605185185	3.0954243778518515
O	8.348140339018519	-4.411497790518519	-0.01543907514814824
O	12.617362729018518	-1.4837893105185185	1.4932039678518518
O	11.514713229018518	-0.01735769451851854	-1.785813572148148
O	12.911676429018518	-3.0384625705185186	-3.655767532148148
O	10.908873729018518	1.2299294994814816	-8.64342722214815
O	11.517319829018518	4.455600459481482	-6.666521852148148
O	8.73747161901852	5.302247399481481	-4.190551942148148
O	8.011445519018519	9.197954859481483	-7.770998822148148
O	-0.6695984289814816	-5.578274670518518	-11.97165649214815
O	3.3338975190185183	-9.130201600518518	-9.235189912148149
O	0.5512452540185184	-11.790127910518517	-3.1332818221481484
O	0.7095513190185185	-8.005406160518518	-2.551922722148148
O	-1.4625774609814814	-8.174105270518519	0.28697825285185186
O	-4.069275130981482	-10.338134010518518	-1.7363117021481482
O	-3.9391916009814816	-7.423356680518519	-4.212559702148148
O	-4.566222340981482	-4.904163900518519	-1.5448811301481482
O	-7.486310300981482	-6.7599844805185185	-0.2013356011481482
O	-8.99404069098148	-6.884526170518519	-3.6993699321481484
O	-8.53971968098148	-3.0918689805185187	-4.206268992148148
O	-10.400639810981481	-2.643707250518519	-0.9023885231481482
O	-14.123534670981481	0.1530846814814815	-3.617938922148148
O	-12.091709970981482	2.0977444794814812	-6.176767042148148
O	-8.57336788098148	3.1594675794814813	-5.233185862148148
O	-8.52919063098148	5.291515549481481	-2.008420992148148
O	-7.041837500981481	3.4808892594814815	1.1406268778518518
O	-5.765736160981482	5.787639539481481	4.040881617851852
O	-6.188391800981481	5.032675159481482	7.626690797851853
O	-2.9676382209814816	3.3215162194814813	8.588183137851852
O	-2.9023589909814818	0.9734892294814815	5.690210297851852
O	-6.640762780981482	0.3625871184814814	6.200640367851852
O	-5.925410850981482	-0.5714303095185186	9.852010507851851
O	-3.3500361609814817	-3.1833577205185186	8.58447226785185
O	-6.102637210981482	-4.812350200518519	6.576339757851852
