97

O	-0.9049345642775362	-2.852305973289855	-2.462309715337682
O	-4.629634907277536	-3.3223001832898547	1.4015783546623182
O	-2.2495195072775362	-4.469281673289855	1.1777335846623178
O	-2.125326387277536	-0.4551267232898548	2.987754374662318
O	-0.942039684277536	-2.813922743289855	3.115992154662318
O	4.148172692722464	2.0862546467101453	-1.6827023233376819
O	3.285751362722464	1.2110054477101453	-1.545463723337682
O	1.4287784727224637	-0.17150401328985465	-2.677563345337682
O	0.46334019272246396	0.5365324667101452	-3.489203305337682
O	0.8757723427224638	0.3084446217101452	-0.866646845407682
O	-2.868748077277536	-2.450883583289855	-0.442142420337682
O	-0.9641111592775361	-0.8436595632898547	0.6599432546623181
O	-3.176276937277536	-3.7209179232898544	3.035420724662318
O	-3.287339067277536	-2.3230078132898546	3.2623838946623174
O	5.313234582722464	2.673402986710145	-1.145471209337682
O	1.9472867727224639	0.7145339307101453	-1.714642550337682
O	-0.6586346988775361	0.26804568771014525	-2.758939895337682
O	-2.354764887277536	-1.4322689332898548	-1.243180047337682
O	-0.3123403462775361	-0.07176136328985472	-1.482826885337682
O	-1.2088422972775361	-0.8572691332898548	-0.720032902337682
O	-2.8295450972775362	-2.2324017832898546	0.879761574662318
O	-1.696111292277536	-1.7887261932898548	1.2922333146623182
O	5.908077692722464	3.6935521267101454	-1.5440332873376819
O	6.318678342722464	1.9963859167101452	-0.508954276337682
O	-1.8039145672775363	0.06365171271014525	-3.457168095337682
O	-2.150207717277536	-2.226823913289855	-2.378911685337682
O	-3.234893867277536	-3.5543347332898545	1.547937514662318
O	-1.9209183072775362	-1.838170003289855	2.7834877746623183
O	3.6690232327224637	-11.470847863289855	4.469612034662318
O	3.2022184527224637	-7.668089563289854	4.774012054662318
O	1.1094418227224638	-7.726597783289854	1.6399053546623181
O	3.974887422722464	-9.192091363289855	-0.422356375337682
O	6.320859392722464	-6.424800833289855	0.7910318846623181
O	3.7556201127224638	-3.763168833289855	0.05982808266231798
O	3.257125352722464	-5.225025563289854	-3.4692968253376817
O	6.9511666327224635	-5.391662703289855	-3.999853055337682
O	7.375561432722464	-1.7585084632898549	-2.974374475337682
O	4.490772822722464	-0.6990239232898547	-5.211364325337682
O	5.953552942722464	-2.089815633289855	-8.286974025337681
O	9.197277262722464	-0.2716935632898547	-7.376468165337682
O	7.441836062722463	3.068326746710145	-6.755580515337682
O	5.581107692722464	2.9281782067101454	-10.122022865337682
O	9.550123052722464	6.438113906710146	-9.630027885337682
O	6.000117562722464	7.719627356710145	-10.193950115337682
O	-4.278064397277536	7.957032896710145	-10.688958675337682
O	-1.328823213277536	5.764482656710145	-9.792450795337682
O	-2.951064577277536	4.104059546710145	-6.731765705337682
O	-4.1236140472775356	7.398125476710145	-5.162637735337682
O	-0.7871197036775361	8.986980226710145	-6.080842125337682
O	1.165567572722464	6.251139636710145	-4.387328405337682
O	-1.146523610277536	6.212073626710145	-1.333157619337682
O	-0.7338286897275361	9.925373126710145	-0.842852833437682
O	3.0727086327224638	9.463028886710145	-0.948578487937682
O	3.4910384327224637	6.674536936710145	1.5972114746623178
O	0.8665137827224639	8.215330526710146	3.8711548446623176
O	2.7660360827224637	11.496747536710146	4.088038784662317
O	4.532800492722464	7.866681556710145	7.467681204662318
O	3.6291198627224635	10.999143436710145	9.460662894662319
O	2.1925911527224637	2.1598353267101453	11.013814994662317
O	3.4378775727224635	3.093520466710145	7.579557854662317
O	6.925831012722464	3.476011666710145	6.113402184662318
O	7.462020562722464	1.7655108017101453	2.790735454662318
O	9.858072252722465	3.257931266710145	0.12869406666231797
O	12.014423052722465	0.2001778257101452	0.6634941446623179
O	10.555259552722465	-1.1970452032898549	5.813316334662318
O	8.110949642722465	-0.1212679472898548	8.555898054662318
O	4.773630292722464	-1.934042213289855	8.499367574662317
O	-1.4882293172775363	-5.5877381532898545	8.626946154662317
O	-2.406338307277536	-10.512189263289855	7.433972894662318
O	-6.153956977277536	-9.955372763289855	7.120920544662318
O	-6.062447187277536	-6.4158273332898546	5.779484854662318
O	-6.460324097277536	-4.532519913289855	9.025828844662318
O	-9.612715697277535	-2.607823583289855	8.107613404662319
O	-8.157985177277535	-0.8882482032898547	5.025960464662318
O	-4.852535517277536	-0.3352580532898548	6.796418674662318
O	-6.684576247277536	1.4308285737101452	9.671374394662317
O	-8.558377897277536	3.654735056710145	7.238654044662319
O	-5.194156087277536	4.768695616710145	5.831546314662318
O	-3.8972901372775364	5.586582636710145	9.301733994662317
O	-7.068058087277536	7.291644626710145	10.531336394662318
O	-1.728149227277536	9.593500846710144	7.976304334662318
O	-9.250308917277536	4.283981146710145	0.053659300662318055
O	-7.643745707277536	4.089720276710145	-3.385308835337682
O	-10.599516507277535	2.1424837667101455	-4.779492195337682
O	-10.584843247277535	-0.2232492132898547	-1.794292728337682
O	-6.865365987277536	-0.8259877932898547	-2.1242390453376823
O	-7.340953637277536	-1.6665799132898549	-5.750117795337682
O	-10.072508297277535	-4.184913033289855	-4.930445865337682
O	-7.657006307277536	-5.868750733289855	-2.525236685337682
O	-4.908807907277536	-5.979314873289855	-5.1515880153376825
O	-7.287864247277536	-7.609092293289855	-7.626526215337682
O	-4.544905237277536	-10.958368463289855	-4.285056385337682
O	-4.090754887277536	-11.438319863289856	-8.032658365337682
O	1.2767704127224637	-13.022786363289855	-3.345594215337682
O	2.854353492722464	-9.353893463289856	-8.366901835337682
O	5.684001542722464	-7.8440566332898545	-10.435161995337682
O	2.0205024327224637	-3.520170833289855	-10.955712705337682
