26

O	63.45918486976426	45.444667581322726	32.91430945389963
O	63.52129385673074	45.162169026116835	31.582351029953955
O	62.915155584119105	46.08205708997768	30.79003262556953
O	61.644772329480304	46.29360951767381	31.160064792191115
O	61.38735453475386	46.2083474144491	32.52182521965384
O	62.41693497826294	46.09299855434929	33.415879237054526
O	58.899628539143215	45.41225051142208	31.3119293676466
O	57.49387864639757	45.2260303141865	31.20335072781915
O	56.76704418153194	45.389638351304285	30.091308658105106
O	57.4462120894632	46.17475868565764	29.18125106090748
O	58.76749138426192	46.56864451722039	29.4459972372452
O	59.63096475512582	46.2011188873839	30.47551335816845
O	62.85040321672649	46.68206407250798	34.68521134794445
O	64.06241754066323	46.263319507606894	35.54018838549401
O	65.16108053258964	45.95033337196123	34.6681035122714
O	64.30623266185393	44.85984157682761	34.00081251802259
O	61.993364307927145	46.29943906666194	35.734260372293534
O	63.56811013863273	47.86132313504389	34.25309032279352
O	63.43929574604528	44.05333630416444	34.91318109655894
O	65.28009049877316	44.03964406889961	33.502555615399686
O	63.858195149161936	46.56316972439258	29.841638937671654
O	60.877327540065885	46.13323376363724	29.928849588983866
O	61.312290342879066	47.20561736651378	28.97709789976387
O	55.331125426586546	45.267633760161	30.222334768948862
O	54.81028413305923	44.22983875909624	30.736868372882597
O	54.486502442666946	45.618929382679006	29.204592895018028
