90

O	1.0179366934999998	0.5990948750764707	4.060459197923531
O	0.042147057499999696	1.2210889450764708	4.937108997923531
O	0.5601479434999997	2.0299935870764707	1.1363756679235302
O	-2.9390213465000006	-3.306115395923529	-5.022254882076469
O	0.12633569349999985	3.147049484076471	0.4284765149235302
O	-2.6818275165000003	-1.4256181759235291	-5.360175482076469
O	-0.7269915225000003	3.9510342340764706	1.1283923379235303
O	-0.6295490465000002	3.844129514076471	2.48649798792353
O	0.12592932349999975	2.8753782540764705	3.18106222792353
O	0.14806536349999966	1.7976976650764707	2.3878486479235304
O	0.36497393349999985	0.35092625207647077	2.6975247179235304
O	-0.44116008750000024	-0.5873650559235293	2.70712357792353
O	0.40063826349999976	-1.7217413959235293	2.18441358792353
O	0.7029031034999998	-1.0278885759235292	1.0442809379235303
O	-0.4234489125000003	-0.8436301759235292	0.06316513992353025
O	-1.1979812865000001	-1.5837696659235294	-0.6711505480764698
O	-1.5612684045000003	-2.1103224259235294	-1.9801289820764698
O	-2.2019636865	-2.3411938659235294	-3.06465485207647
O	-2.2027525365000002	-2.4228182059235293	-4.44544843207647
O	0.06910774549999976	2.725613284076471	4.642480957923531
O	1.5167230634999997	-2.0241863859235294	3.05913451792353
O	-0.37957366650000024	-2.993774115923529	-1.9922924320764697
O	-9.4926537965	7.52399953407647	5.164949337923531
O	-6.7930591265	6.755431784076471	2.56015414792353
O	-5.6705303565	3.920832314076471	4.81300449792353
O	-9.016898926500001	2.140402374076471	4.599797717923531
O	-8.9629053965	2.352468644076471	0.7868927989235303
O	-5.4089762865	1.0889719156764708	0.6673930359235303
O	-6.2082474565	-1.8639905959235294	2.9323759279235304
O	-9.3384004765	-2.576682065923529	0.9423703589235303
O	-7.2844366664999995	-2.6797228559235293	-2.28825406207647
O	-4.6493446765	-4.88506082592353	-0.6683503390764698
O	-7.1100607665	-7.52613740592353	0.29725865192353024
O	-8.4373823065	-7.4235371959235295	-3.29447529207647
O	-4.9688445265	-7.679264145923529	-4.854995962076469
O	-4.0357629965	-10.71126676592353	-2.6519631120764697
O	-4.9318833465	-11.55142526592353	-7.834926582076469
O	-1.4627603415000001	-12.25164736592353	-6.408028912076469
O	6.6503376235000005	-12.11540966592353	-0.07908059687646975
O	3.1039801334999995	-10.80642536592353	-0.5258660670764698
O	3.8214113034999992	-7.38528382592353	0.8706239899235303
O	6.8856968135	-6.654459455923529	-1.2151331920764699
O	5.1607267135	-8.23163685592353	-4.21711058207647
O	2.2007686134999997	-5.986962875923529	-3.90907607207647
O	4.3947460935	-2.9007617259235294	-3.27091797207647
O	6.3863872435	-3.5149511859235294	-6.35133994207647
O	3.1319325535	-3.7487309259235295	-8.35325464207647
O	1.4188098534999996	-0.5537371359235292	-7.292349002076469
O	4.7094817635	1.3519626330764707	-7.4037109520764695
O	5.2778919735	0.4687664020764707	-11.03162952207647
O	1.5994327334999996	1.1056718942764707	-11.816853822076471
O	2.1310510634999997	4.630874654076471	-10.42410702207647
O	5.0338854735	5.66612949407647	-12.67678042207647
O	0.06455352349999977	6.254990164076471	-6.314059402076469
O	-2.6251367765	4.45640289407647	-8.339922312076471
O	-4.5022820665	1.7322394080764707	-6.46387747207647
O	-5.7772393865	-1.3716950759235291	-8.24510430207647
O	-9.2984133865	-0.10799122592352917	-7.586174762076469
O	-8.3497094365	5.340773454076471	-7.04109607207647
O	-5.4087808565	7.780760514076471	-7.09640863207647
O	-3.9420811065000003	8.55699724407647	-3.6851848220764696
O	-1.2656415765000002	10.156773144076471	2.9288380979235304
O	-3.7423351265000004	10.51412440407647	7.45883902792353
O	-0.5069949495000002	10.29541363407647	9.46136400792353
O	1.4071790334999998	7.961956214076471	7.1411041679235305
O	3.3359937134999993	10.57358522407647	5.1637549879235305
O	6.8455727535	9.295969164076471	5.961207757923531
O	6.3375081035	5.76416085407647	4.612639887923531
O	4.3437808835	7.0778979140764715	1.6701253979235302
O	7.2471419435	9.41630585407647	0.7407886749235303
O	9.7535395935	6.55034875407647	0.9239149429235303
O	7.6113525834999995	4.65000454407647	-1.6138232520764697
O	7.5390665535000005	7.635986174076471	-3.94225860207647
O	11.2237973935	8.52064978407647	-3.5589970520764695
O	8.133617633499998	5.047685984076471	-7.879699132076469
O	9.6636882935	-0.4670625359235292	2.84481621792353
O	7.793562453500001	-3.7813935459235295	2.9258944479235303
O	8.788478573499999	-4.33997329592353	6.561468917923531
O	7.7329512035	-0.8036347359235292	7.500882187923531
O	4.4261267335	-1.1741781059235294	5.729306067923531
O	3.8255966834999993	-4.432822035923529	7.6448625179235306
O	4.4706095635	-2.661037865923529	10.94300587792353
O	1.8500265834999996	-0.06935870592352922	9.94722817792353
O	-0.6863100155000003	-2.765771885923529	9.07778121792353
O	-0.1555281675000002	-4.4849199359235286	12.45455567792353
O	-3.9370053765	-0.5172364559235292	12.33887487792353
O	-5.0685396664999995	-3.979802155923529	13.38642967792353
O	-9.226609786500001	-5.303593365923529	7.558707477923531
O	-10.7363332565	-7.894051365923529	5.227913087923531
O	-5.2995953665	-9.38692116592353	4.495686037923531
