26

O	65.27028584988769	46.883115028681395	33.93843270806002
O	65.1581807173421	45.74738867344112	34.84024273220998
O	64.01119039513918	45.97074200171889	33.97629780541112
O	60.186809992403354	47.99414763031595	32.92967337593679
O	60.72687996527367	45.70439474401023	33.53974645397809
O	61.1034644872359	47.02798818297682	33.485038773380786
O	62.5468756477648	47.40978825586631	33.61322644658057
O	63.14618067073777	47.24970007356095	32.257325743523054
O	63.82191139082363	44.544951476545336	30.489843102889488
O	54.26581153276613	45.82687265998286	29.54185961502749
O	65.03043816769252	45.20473900132969	30.984672306197776
O	54.638221844054236	44.475385769758134	30.77975308082191
O	64.98174025668064	44.644503740610425	32.43337956239986
O	63.54905408557513	45.261361136656305	32.6805973508007
O	62.653120866912516	45.729636803970685	32.149620212412074
O	62.48566898509745	45.214537077848675	30.75286184826521
O	62.848433622569424	45.75610478067902	29.581105998776213
O	62.48585547639521	47.10531515611999	29.53055893995105
O	61.62917887536419	46.92432019217469	30.578200882174816
O	60.42389366125316	46.0558745420739	30.458332811581936
O	59.300221090078956	45.559604262778386	30.251769438340233
O	57.875174354455325	45.55397817378044	29.908165869143406
O	56.638136382915945	45.29332289825707	29.706967911602177
O	55.33671615930813	45.552912379454305	30.119684688211144
O	63.78658762021647	47.720035616077524	29.78819888639462
O	58.05729194341254	46.85790738940256	29.26234195693042
