21

O	54.75877202726945	45.55301588887362	30.873750845146102
O	53.871786849712954	44.955381765015666	31.356760213223218
O	56.01344981739344	45.5664853097728	30.38025651288502
O	53.6750319626279	46.015705200401484	30.223465085519507
O	57.28966767881807	45.728373916229415	30.34733645762081
O	62.66641576202697	46.071211330850666	28.621911369340154
O	58.70410592592684	45.82439145194109	29.96122930200267
O	59.84541836048379	45.24376057217446	30.416371273419003
O	61.16949250928525	45.79105800669095	30.413778656463304
O	62.22219797905424	45.87873009233	31.307031500937537
O	61.80351842629716	47.12279282782082	31.808758769709
O	61.482748324207606	47.02209923110977	33.20104791851421
O	59.89977503690306	46.927418660403674	33.06065146898853
O	59.336906499483916	47.83264829507111	32.08222003364793
O	59.35634187800695	45.57701608122996	33.19416738485607
O	62.33072731755604	46.383346692202544	34.0431473065317
O	63.361419939624454	45.741327302049925	33.35302286248707
O	63.260688350298594	45.47692209528573	32.026062036811
O	61.39111935664474	46.279654179967	29.170663961623422
O	60.3779244271367	46.4419479807952	28.286148305431563
O	59.08210377652439	46.52337273487252	28.80684191211029
