30

O	66.51483950811307	47.41737541070884	22.044748567366018
O	67.47103260909357	48.09437584550851	22.320759505624892
O	68.44427282470086	48.08627113702407	21.234332370441592
O	68.79296814243162	46.6997372030243	21.283593210924312
O	65.98315494416875	48.32295207749634	21.083810857446064
O	64.97414481670167	47.72089133714832	20.6883313073511
O	65.05463417541385	46.43013050133588	20.25873384984755
O	65.70975336297775	45.551522637702696	21.00864093293549
O	66.54007815902435	46.12878062764223	21.985208987683844
O	69.57019400044607	48.87053346092729	20.822794598938927
O	63.997155181467974	46.669024076633264	23.649971750516634
O	63.58138070518389	45.83125540234434	24.694128218049688
O	62.155331150768646	45.72926836077961	24.734475859035793
O	61.5005342548331	46.59953933887694	23.816553392931343
O	61.86044195202798	45.80259630409504	22.653849243915055
O	60.92171758476766	46.106591303374174	21.685290521364966
O	62.63543284415771	44.650464872112444	22.584433708545735
O	63.54514094358789	46.65186415048649	25.925044639981454
O	64.48286896472564	44.816200751689784	24.308965707282443
O	63.20412154867404	46.47433190332782	22.66070272117856
O	63.083063897253815	47.4250235046131	21.846489659428425
O	64.08327552917278	48.26253013998748	21.808584943392063
O	64.3760609846129	48.822006808925394	22.99417357582348
O	65.47012068111407	49.77937275039059	22.81378340367472
O	64.60707946461858	47.78631439406066	23.934333623360473
O	67.86179023139304	45.9237007809315	21.96730150082048
O	63.692168262488146	46.15091078649644	20.047695498414633
O	69.87816220598368	46.689720350967086	21.972978329829978
O	69.69087249178385	50.00742344871243	20.3902015002919
O	70.92674091293239	48.45690448932877	20.79978066374105
