97

O	3.305060066588237	-2.548534764455883	-2.831258873544117
O	-4.045193383411764	-4.195784334455883	-0.7044883743341174
O	-2.0382503634117635	-4.612849514455883	0.9835596264558827
O	-3.4908784634117636	-0.4210780744558831	0.9469937364558826
O	-2.513626963411763	-2.242937114455883	2.561351976455883
O	4.2823072165882365	2.526253685544117	0.47973692645588273
O	3.4969590465882363	1.5299775995441172	0.5872474564558826
O	2.8618376465882367	-0.13698290445588301	-1.2463237885441174
O	2.4725367565882364	0.41458231254411704	-2.527393493544117
O	1.3037003865882366	0.254094825544117	-0.1274430785441173
O	-1.1522882544117634	-3.253892844455883	-1.1350514875441173
O	-1.0024724784117636	-0.9428472844558831	0.15987845245588272
O	1.8297736265882367	-2.847143274455883	-3.186700653544117
O	-3.9287597734117634	-3.770163264455883	1.3926518164558828
O	-4.3560114934117635	-2.457599024455883	1.0233488964558828
O	4.915239506588236	3.422665575544117	1.3747429864558827
O	2.6176195265882365	0.767883932544117	-0.26790308754411735
O	1.1881944365882364	-0.132075995455883	-2.5354706935441174
O	-0.2840629784117635	-2.337241734455883	-1.7303445535441173
O	0.7178607265882364	-0.20284524845588303	-1.2611000535441175
O	-0.34623269841176346	-1.145470954455883	-1.0562122555441174
O	-2.2384581734117637	-2.808519644455883	-0.4422643025441173
O	5.322446926588237	4.584962045544117	1.2553610964558826
O	5.478277836588237	2.999130385544117	2.539962316455883
O	0.5532897665882366	-0.4266867044558831	-3.7035194535441174
O	0.9324135665882365	-2.695184514455883	-2.2006476135441173
O	-1.9487703534117635	-1.8655425944558832	0.38710182645588265
O	-2.9871371534117634	-3.9359152744558834	0.1952673204558827
O	-3.0814832434117636	-1.705243614455883	1.351479866455883
O	0.7740338365882364	-9.504783334455883	8.850910136455882
O	0.06986823758823657	-5.887078214455883	7.746160706455883
O	0.27407225658823653	-7.023621154455883	4.157336526455882
O	3.8539999965882363	-8.258003684455883	4.578274366455883
O	4.889989336588236	-4.875579804455883	6.0463866764558825
O	3.1546039165882367	-3.024767374455883	3.2629413564558827
O	4.925473656588236	-5.249802574455883	0.7099240864558828
O	8.216712916588236	-4.748322404455883	2.3877960064558827
O	7.798255306588237	-0.981985604455883	2.3852656864558828
O	6.775588286588237	-1.016838004455883	-1.2744094075441175
O	9.867489026588236	-2.686554124455883	-2.4244179635441174
O	11.836084326588237	-0.09893896145588299	-0.4168106255441173
O	9.910579526588236	2.846181845544117	-1.9058169335441173
O	10.443872926588236	1.650512725544117	-5.511860683544117
O	13.204985026588236	5.916200125544117	-3.9069257835441173
O	10.638382126588237	6.315351665544117	-6.700073683544117
O	2.6976985665882367	4.3681173655441174	-12.966658173544118
O	4.610322936588236	3.046597355544117	-9.978828473544118
O	1.5509159465882365	1.770730035544117	-8.050631853544118
O	-0.4737320734117635	5.022065345544117	-8.443368333544118
O	2.6794846065882365	7.024152485544117	-7.722821583544118
O	3.3414334165882367	5.155438845544117	-4.521824543544118
O	-0.3469987794117635	5.280330505544117	-3.443674443544117
O	-0.4480493964117635	8.981332035544117	-3.8788098035441174
O	2.6892728865882365	9.276043105544117	-1.6828307675441172
O	1.6144531365882364	7.219539685544117	1.3226729464558828
O	-1.9045032534117634	8.646988455544117	1.1725825564558825
O	-0.6442612574117634	12.189358165544117	1.4557515664558829
O	-1.1116840934117636	9.800092225544118	6.121650496455882
O	-3.1502752434117633	13.012123965544117	6.233729936455883
O	-4.887077033411764	4.605101905544117	9.188114366455881
O	-1.8664447734117635	5.043869375544117	6.976347856455883
O	1.7966617465882364	5.810098735544117	7.692606176455883
O	4.292558316588236	3.589568695544117	5.897848716455883
O	7.742730956588236	4.964842845544117	4.773660956455883
O	9.267773426588237	2.568593715544117	7.2669351064558825
O	5.064958466588237	1.994247855544117	10.848791826455882
O	1.4305630965882363	3.114268315544117	11.278870026455882
O	-1.1550569374117634	0.700770501544117	9.917901326455882
O	-6.095355793411764	-4.049656484455883	7.523561756455883
O	-5.903661193411763	-9.199746414455882	7.448960766455882
O	-8.723158773411763	-9.483167134455883	4.912774586455883
O	-7.974258303411764	-6.337906704455883	2.931439416455883
O	-10.340441453411763	-3.969239804455883	4.686681866455883
O	-12.364386273411764	-2.968021414455883	1.6199424664558828
O	-9.426652273411763	-1.652122104455883	-0.4223252365441173
O	-7.884208903411764	-0.08701251345588301	2.695624536455883
O	-11.141232773411764	1.819431775544117	3.3348159564558824
O	-11.279679973411763	3.053437735544117	-0.24632510954411735
O	-7.814927763411763	4.554711065544117	0.23885728645588267
O	-8.878469153411764	6.298788915544117	3.4371157464558824
O	-12.221947673411764	7.526183395544117	2.1043346564558827
O	-6.500517783411764	10.293219335544117	2.4805808964558826
O	-7.555536273411764	2.045134825544117	-6.393912233544118
O	-4.202085523411764	1.473781948544117	-8.086603023544118
O	-5.625444653411764	-1.283606164455883	-10.261985583544119
O	-7.316733513411764	-2.923595884455883	-7.289458513544117
O	-4.101504613411763	-2.810765494455883	-5.273795663544117
O	-2.2645342234117636	-4.455774954455883	-8.085876413544117
O	-4.853299933411764	-7.252774304455883	-8.331897203544118
O	-4.327466463411763	-7.921947754455884	-4.636638203544117
O	-0.5603874414117634	-8.052304284455882	-5.070299253544118
O	-0.9090289774117635	-10.585767534455883	-7.855361523544118
O	-0.5627272734117634	-12.499111734455884	-2.7197976635441172
O	2.0635322065882367	-13.657122534455883	-5.201735643544117
O	7.7743142565882355	-10.329429734455884	-2.112627753544117
O	11.191832226588236	-8.691002894455883	-2.5797518535441175
O	8.373232916588236	-5.410855794455883	-6.288995413544117
