92

O	-3.541725505355224	0.5005024135074625	-2.848719586453731
O	-3.4599065053552245	0.27941185850746253	-1.4521092964537312
O	-4.215645985355224	-0.7845909724925374	-1.1968097744537314
O	-4.280951005355225	-1.3130893324925377	0.09209073654626876
O	-3.2142896353552244	-1.3724910124925378	0.9385507635462688
O	-2.9251953653552243	-2.3286157224925375	1.9672429535462688
O	-3.135016475355224	-3.182245572492538	2.8310116035462687
O	-2.9813672853552244	-3.911059212492537	4.009513143546268
O	-3.5472291753552243	-3.8606374424925374	5.111980543546268
O	-2.4787459253552244	-5.169448432492538	4.019181413546268
O	-2.4939972553552243	-0.23373618849253752	0.5744298835462688
O	-2.3285681653552244	0.4141682495074625	-0.7131589603537313
O	-1.2828476313552242	1.1456023445074623	-1.162268743453731
O	-0.3257963003552242	0.3287244645074625	-0.6324562786537312
O	-0.03888733535522415	-0.9497765724925374	-0.9799869154537313
O	1.5250109546447759	-0.8831340424925375	-1.0598398234537312
O	2.279106704644776	-0.34587190149253755	-0.09652499145373128
O	3.6644555446447757	-0.31336270849253745	-0.2903365024537312
O	4.210382914644776	-0.1177165774925375	-1.5238720364537313
O	3.281281614644776	0.08121409350746245	-2.541293326453731
O	2.004521994644776	-0.17269027649253754	-2.2104421464537314
O	-0.7064197703552242	-0.9256363024925375	-2.2441529964537312
O	-0.6423337643552243	0.13559518350746247	-3.282777906453731
O	-1.0352110726552242	1.2817519115074625	-2.558093696453731
O	-1.901171167355224	2.3647391175074626	-2.915039636453731
O	6.271123134644776	-6.379347152492538	-3.860025436453731
O	3.645776704644776	-4.6868305524925375	-6.004199366453731
O	1.7799325346447759	-7.900633562492538	-6.713764876453731
O	1.6916190146447756	-8.807092002492537	-2.970588516453731
O	0.4557451446447758	-5.425080422492537	-2.074279206453731
O	-2.270887125355224	-5.414634222492538	-4.719298016453732
O	-3.205341115355224	-8.877244492492537	-3.556780556453731
O	-3.520654655355224	-7.657804752492537	0.06486522854626875
O	-5.525986285355224	-4.769951462492537	-1.0829605754537313
O	-8.171371795355224	-6.797321482492538	-2.792847476453731
O	-8.339610995355224	-8.850566152492537	0.40314693354626885
O	-8.667596165355224	-5.8091998424925375	2.6639848035462688
O	-11.576153385355225	-4.366242272492538	0.5749011635462687
O	-12.694653685355226	-6.3827920824925375	5.333191203546268
O	-11.414224585355225	3.1894534475074625	0.30498115354626876
O	-7.847862055355224	4.088852207507463	-0.6793594514537312
O	-7.172908725355224	6.492938277507462	2.153774943546269
O	-9.001849955355224	4.120967867507463	4.532634323546269
O	-6.694400095355224	1.2271572855074626	3.551334653546269
O	-3.5685630653552245	3.407451887507462	3.7122936935462687
O	-4.448480065355224	4.612281117507463	7.183962953546269
O	-4.865903315355224	0.8975392965074624	8.209192113546269
O	-1.6367904173552241	-0.4970370524925375	7.0880471635462685
O	0.2783759546447757	2.6092629675074623	8.187360483546268
O	-0.9123034223552242	2.2341106875074623	11.702179433546268
O	3.230156894644776	-0.7737159624925375	10.662079233546269
O	4.126599984644776	1.4534296325074625	13.65456303354627
O	8.021713404644775	-1.9734962524925375	11.886286233546269
O	8.866654234644775	-0.9937300924925375	6.2956244135462684
O	5.202058794644776	-1.8478466524925374	6.359601713546269
O	3.0801281246447756	-4.817057492492538	7.447236303546269
O	0.5697920546447759	-6.086920952492537	4.9991941135462685
O	-2.699187885355224	-7.711591792492537	6.322184623546269
O	-1.4814650123552242	-10.919825822492538	4.8603893235462685
O	3.9449346746447764	-10.087519522492537	4.977230403546268
O	6.491179064644776	-7.416691682492538	5.949341973546268
O	7.702415334644775	-5.2598937624925375	3.065598933546269
O	9.820571314644775	-1.0699859024925376	-2.630435596453731
O	10.459617614644776	-2.3587147624925375	-7.599333836453732
O	10.427355214644775	1.2702582175074624	-8.774869526453731
O	7.912444424644776	2.5931571775074627	-6.200549006453731
O	10.421175314644776	3.9082991575074626	-3.661265216453731
O	9.266533514644776	7.5377822575074624	-3.686934906453731
O	5.624324554644776	6.848792707507463	-2.7434825664537312
O	6.749939264644776	4.215079657507463	-0.27229837345373126
O	9.038679314644774	6.755605807507463	1.4852604735462687
O	6.192274594644776	9.271859727507463	1.6934346735462689
O	4.090651524644776	6.673399497507463	3.5160553735462687
O	6.880631914644776	5.934942827507462	5.971662063546268
O	7.8402869446447765	9.573843917507464	6.546515753546268
O	2.3088231446447756	8.604732537507463	8.014901823546268
O	3.9874718946447762	5.661590537507462	9.742544233546269
O	-0.6388670863552242	9.915292947507464	-0.6913399570537312
O	-3.980431865355224	8.272687147507463	-1.4752878974537311
O	-4.212329565355224	10.102108347507464	-4.804862446453732
O	-0.6389119293552242	9.123921847507463	-5.683579896453732
O	-1.1799887305552241	5.534451057507463	-4.833118816453732
O	-4.314943655355224	5.521162807507462	-7.0431314664537314
O	-2.2738870453552242	6.873908747507462	-9.945408616453731
O	0.20382514464477586	4.024410427507463	-9.476188036453731
O	-2.5987592653552243	1.4449168225074625	-9.423322736453732
O	-4.071840305355225	2.8132202275074625	-12.667183066453731
O	-0.17350779035522423	-1.0239480724925376	-13.175134866453732
O	-3.5655170153552245	-1.7549560224925376	-14.711674166453731
O	-5.384905135355224	-7.104641252492538	-10.147402856453732
O	-8.180283195355225	-9.066722612492537	-8.46846898645373
O	-9.652444355355225	-3.9198329624925377	-6.546178626453732
