80

O	1.1560530713800004	2.2859350018000004	1.2580428538000004
O	1.2550494513800003	3.4485893818000006	1.5534263038000005
O	2.13786906138	3.6194152118	2.7019184438000003
O	1.3441412913800004	2.9313798918000002	3.6730492438
O	2.4683035013800003	2.1732751918	0.7181674668000004
O	2.5119124413800007	0.9797934869000002	0.3854779308000003
O	2.1821616613800003	-0.003973818199999757	1.2689723338000003
O	1.0586987913800003	0.1197765258000002	1.9661169338000002
O	0.5166603413800004	1.4169061498000002	1.9655909138000005
O	2.8695658713800007	4.6853376918	3.3188124938000003
O	-0.5211229586199996	0.8480684378000002	-0.8855816151999998
O	-1.8378436286199995	0.44487223480000015	-1.1476254941999997
O	-1.8819496486199996	-0.5018531481999997	-2.2187988362
O	-0.6210603176199996	-0.6981475681999998	-2.8515221561999997
O	-0.07640359161999966	-1.4697390781999997	-1.7449380961999996
O	0.9333741913800004	-2.2428099481999997	-2.2875545861999997
O	-0.6578934696199996	-1.7811328082	-0.5211163351999997
O	-2.4375537586199996	1.4626202128	-2.0389189861999997
O	-2.0833415886199997	0.1781990428000002	0.21618656980000034
O	0.23499961138000036	-0.1751063481999997	-1.0494492871999996
O	1.4346446613800004	0.05867193180000019	-1.3454422861999997
O	1.8831850813800004	1.2306874698	-0.9870172441999996
O	1.1718879313800004	2.2622515818	-1.4710520761999997
O	1.8019104113800004	3.5162713518000004	-1.0508582271999998
O	-0.1829951426199996	2.0910199918	-1.0903936601999997
O	0.3809110613800004	2.1019550618	3.1064595938000004
O	2.2536247213800005	-1.1297446681999996	0.42852767580000034
O	0.7227252413800005	3.8811685518	4.2769879238
O	3.838923231380001	5.3477808018	2.9786149538
O	2.62555109138	5.2508447318	4.5965044238
O	-10.90116421862	-2.3346698681999998	-4.3260329961999995
O	-8.55494063862	-3.1426410182	-1.3506894961999996
O	-9.11649050862	-6.8452820982	-1.9448540761999997
O	-8.12736820862	-6.4298847582	-5.6565921362
O	-5.103233188619999	-4.2855593782	-4.7046317762
O	-3.7049061386199993	-7.074080088200001	-2.3619336762
O	14.37248148138	-3.9970202082000004	-5.4110205162
O	12.47384048138	-3.8584885381999996	-2.1207990162
O	12.97179078138	-0.12714190819999982	-1.8075735861999995
O	11.78770638138	0.5842685278000002	-5.3522368062
O	8.64617519138	-1.4700923681999998	-4.9524562362
O	7.627834191380001	-0.20418246819999974	-1.6497318961999996
O	8.31019267138	3.3411095518	-3.0690123461999996
O	6.359698301380001	3.0801122018000004	-6.2874292162
O	3.7969307813800004	0.4760973768000002	-5.9951906061999996
O	0.6351522713800004	2.6950298418000003	-5.6360207162
O	1.5029795013800002	4.9053801718	-8.5932930262
O	2.3824839113800005	1.7197208018000003	-10.466140246199998
O	-1.0187641246199997	0.14296190980000023	-9.682233546199999
O	-2.90952448862	3.3799747918000005	-10.469845146199999
O	-3.2966013486199994	11.0622692618	-6.8893547762
O	-1.0526796996199996	8.2522920018	-5.5544227762
O	-0.4224509046199996	10.2030614318	-2.3382614062
O	-4.09742269862	10.8988524218	-1.8449099061999996
O	-5.14860367862	7.3592097318	-2.4330230862
O	-2.5347798886199997	6.0234697918	0.046312632800000336
O	-4.16981237862	8.6238641418	2.5593685838
O	-7.318515678619999	6.9213387718	2.1505736238
O	-5.8158645686199995	3.4516838018	2.6507367738000003
O	-4.40041072862	4.4790442318000006	5.925196933800001
O	-7.592369328619999	5.9038607818	7.0811433438
O	-9.36737751862	2.6811005818	6.3617689538
O	-6.687299158619999	0.9054637548000002	8.424057473800001
O	-7.148298008619999	3.4144804318000004	11.238014253800001
O	-10.91476541862	3.0745952918	11.390223353800002
O	-6.833133288619999	-5.2117943382	4.6467699438
O	-4.9474555986199995	-8.2648620082	3.4848740838000003
O	-1.3803684496199997	-9.1199315382	4.4408372838000005
O	0.5249759213800005	-7.796658778199999	1.4243499038000005
O	-1.3853129116199996	-4.5331650982000005	1.3728865238000003
O	-0.9624369106199996	-4.2622332782	4.9457470738
O	2.80883403138	-5.0343429882	4.8019076538
O	3.330168551380001	-2.3408365381999996	2.5907585738
O	1.4884869613800003	-0.45369451819999984	5.1285625538
O	4.28622115138	-1.3643730081999996	7.7356164938
O	7.109483021380001	0.8557295208000002	8.737382273800002
O	10.55478368138	0.5180080008000002	7.0812507938
O	9.39393798138	-6.8472862582000005	4.8835484438000005
O	6.416753461380001	-11.1466249382	2.1678300738000003
O	8.13143897138	-8.8081331382	-0.3720285851999997
