94

O	-1.5531567055147062	-1.5114094764411765	4.699580124205884
O	-2.8158961915147063	-0.7915768064411766	4.644506064205883
O	-2.005891744514706	-0.7189258764411766	3.4401435842058836
O	1.3020433384852936	0.9891062825588235	0.9997194142058833
O	-1.1155104601147061	1.0221636885588234	0.7523859242058833
O	-0.01706116151470627	0.7947021695588234	1.5513720442058836
O	-0.1499297875147062	-0.008720716441176446	2.8093453142058835
O	-0.07134933151470624	-1.4413519264411765	2.4035690442058835
O	-2.193723051514706	-3.3439223164411764	0.7386283342058834
O	2.1603325984852937	2.0544948705588233	-6.026009895794116
O	-2.113438597514706	-3.704039606441177	2.1544611042058834
O	0.4542902184852937	2.7164217835588236	-5.6401878557941165
O	-3.0388545215147063	-2.5794823664411766	2.6966456942058836
O	-2.118648118514706	-1.4526864364411767	2.0820153542058835
O	-1.2633438105147061	-1.2730375864411767	1.3471031242058835
O	-1.2599504115147062	-2.2641178064411767	0.22369301620588333
O	-0.5299987985147062	-3.3757026164411768	0.05206731120588337
O	0.8155449784852937	-3.1288878064411767	0.3401314502058833
O	0.5992427184852938	-1.7841312164411767	0.24499648920588335
O	0.21705330848529392	-1.1456318564411767	-1.0463316917941166
O	0.17247593848529386	-0.6106140664411766	-2.1703252357941167
O	0.7043738684852938	0.030504523558823493	-3.3765195857941164
O	0.9057689584852937	0.6513867345588235	-4.477714405794117
O	1.4134009784852937	1.8076422325588235	-5.058058605794116
O	0.897995648485294	-3.7322828464411764	1.6687698542058835
O	2.0212418184852936	-0.5296762264411765	-3.0562961157941166
O	-12.910657301514705	1.9350359245588233	0.43605802420588347
O	-9.264167171514705	3.146413063558824	0.4897764442058833
O	-8.302393371514706	-0.5095712464411766	0.7124967042058833
O	-9.885029331514707	-1.3826814264411766	-2.6242565357941166
O	-8.074976851514707	1.5283491925588235	-4.3459761657941165
O	-4.785296931514706	0.5191579765588235	-2.7796379157941167
O	-5.211617601514706	-3.1009792664411764	-3.9140810057941167
O	-6.2135062815147055	-1.9491290164411763	-7.361212185794116
O	-3.057445721514706	0.19609643455882353	-7.6137009357941166
O	-0.8631671095147062	-2.637436956441176	-6.336181625794117
O	-1.9639166005147062	-5.022898626441177	-8.964434015794117
O	-1.2411102305147061	-2.2803657064411764	-11.524833425794117
O	2.2241728784852937	-1.5415183764411766	-10.134422415794118
O	3.2137177084852944	-5.2659484164411765	-10.133269275794117
O	5.458886278485294	-2.061904986441177	-13.731931925794118
O	7.671937998485294	-3.763651236441177	-11.139651525794118
O	10.607912398485293	-8.684956096441176	-2.6065035957941167
O	7.584530488485294	-7.269995646441177	-4.434793095794117
O	5.905133638485294	-5.984181106441177	-1.3189898477941167
O	8.875460138485295	-4.107677166441177	0.10508025620588335
O	9.767389998485294	-2.9337671864411767	-3.3971852657941164
O	6.376435188485294	-1.4701190964411766	-3.9098185257941167
O	6.223479418485294	0.08736090355882342	-0.40489508379411665
O	9.538780498485295	1.7917137245588235	-0.9574899677941167
O	8.160762598485293	3.246693573558823	-4.221124415794117
O	4.905388678485294	4.761934473558823	-2.9936312157941165
O	6.616270128485294	6.0169297635588235	0.1444590992058834
O	9.207086598485294	7.979983973558824	-1.7810771357941166
O	4.693088038485294	10.607233233558825	-1.2216185257941166
O	7.493018918485294	12.784684333558824	0.18759446720588335
O	-0.8504390585147061	10.974016003558825	3.2879128842058836
O	0.40684573848529393	8.938412723558823	0.3648440102058833
O	0.18202938848529393	9.238520763558824	-3.4102590657941168
O	-0.9248079195147062	6.105724773558824	-5.239064075794117
O	0.41775601848529376	5.302479403558824	-8.725608575794118
O	-3.089902861514706	5.900217233558823	-10.041604725794118
O	-5.117354511514706	9.187729083558825	-6.056804575794117
O	-4.008811431514706	10.796628003558824	-2.7750204157941165
O	-4.917701711514706	8.785162153558824	0.3238033442058833
O	-6.815831301514706	4.923130693558823	6.216955054205884
O	-11.038077401514705	2.036310619558823	7.035691274205884
O	-9.483785921514706	0.24237176155882345	10.013414374205883
O	-5.880739371514706	0.21976428855882346	8.798791884205883
O	-4.6639727915147065	3.349925063558824	10.586458774205882
O	-1.8674298095147062	1.6872913335588233	12.557306074205883
O	0.041179558485293866	0.25045896755882346	9.601311174205883
O	-0.6086777925147062	3.383899303558824	7.570075484205883
O	0.9377819784852937	5.525753493558823	10.374663374205882
O	4.020884538485294	3.2944276935588235	10.531060074205882
O	4.576166068485294	3.9869346935588235	6.833490034205884
O	4.251375638485294	7.744903003558823	7.2993004142058835
O	6.409970448485294	7.8621661735588235	10.432517774205882
O	7.773022808485294	8.759651813558824	4.252778724205884
O	6.182564198485294	-2.943696986441177	7.447151524205883
O	6.2497537184852945	-5.185760846441177	4.378410354205884
O	5.439459838485294	-8.248811166441175	6.469207624205883
O	2.604026108485294	-6.436950486441177	8.235360334205883
O	1.154010228485294	-5.2689728364411765	5.014291604205884
O	1.252432348485294	-8.812692216441176	3.6445435142058837
O	-0.6568168895147062	-10.029152766441175	6.691937294205884
O	-3.305961221514706	-7.426139896441177	5.973357044205883
O	-3.5613707515147066	-8.545152396441177	2.3265943042058836
O	-4.031713901514706	-12.161314966441175	3.3504038642058833
O	-8.608978751514707	-9.115438066441175	3.0529759542058836
O	-8.401347271514707	-12.185669866441176	0.8420034342058834
O	-8.100299541514707	-8.657927956441176	-5.549292055794116
O	-6.905562591514706	-8.661005536441175	-9.168316085794117
O	-1.809842910514706	-9.451998066441176	-6.765391365794117
