90

O	-3.0794665701764705	3.6173397529705875	1.1289854327205882
O	1.5287424798235294	-6.213821017029413	-1.824964237279412
O	-3.3455093901764705	4.410675092970587	-0.0978868589794119
O	1.5265583598235295	-4.966575587029412	-3.282253687279412
O	-2.131004170176471	5.137199272970587	-0.2171961911794119
O	-0.9938412217764707	4.895383732970587	0.7153307097205881
O	-0.9749168445764708	3.493619152970587	0.6038965697205881
O	-2.014977843176471	2.7947018429705874	0.6336430437205881
O	-1.9436132811764706	1.3724845679705875	0.8473509227205881
O	-2.001046713176471	1.0618787595705876	2.075781692720588
O	-0.8000087401764707	0.4218547839705875	2.613070712720588
O	-0.05103165017647071	0.24107887897058755	1.5643494027205882
O	-0.3094073451764707	-0.7521432470294125	0.4974992247205881
O	-0.17386352217647072	-2.0302252470294126	0.2944109037205881
O	0.44229954982352937	-3.2123812570294126	-0.2704919052794119
O	0.6894969198235292	-4.236432597029412	-0.9999765512794119
O	1.5271388598235294	-4.928622007029412	-1.8484537472794118
O	-2.6625038401764707	4.464652342970588	2.187002702720588
O	-4.164765230176471	2.7208140929705875	1.4290411827205882
O	0.2574386598235292	2.491105962970588	0.6977802717205881
O	-0.26374256917647076	1.1440952589705875	3.7257178027205877
O	1.5808682698235292	-3.140903377029413	0.6953051637205881
O	-12.015004380176471	2.1266218729705875	-4.832408067279411
O	-8.187711380176472	1.9383615199705875	-5.127396087279411
O	-8.023668820176471	1.7009457749705876	-1.3591978772794118
O	-10.09551106017647	-1.4950226670294124	-1.278760217279412
O	-7.85303786017647	-3.135056157029413	-3.904336337279412
O	-4.775292990176471	-2.0348626770294125	-2.017797657279412
O	-6.06189458017647	-3.4378198070294124	1.2709779127205882
O	-7.11926173017647	-6.643419917029413	-0.4935645412794119
O	-3.559992070176471	-7.009537127029412	-1.8668647272794119
O	-2.032418303176471	-6.256075487029412	1.5342486427205881
O	-3.907371710176471	-9.032025657029411	3.2275473627205877
O	-2.765481840176471	-11.366783857029413	0.41807409872058804
O	0.8859176298235292	-10.301896457029411	0.6583666527205881
O	0.9461683498235292	-10.825780257029411	4.482243692720588
O	3.590124569823529	-14.307031157029412	1.4246199427205881
O	5.539099839823529	-12.168234657029412	3.9140824427205883
O	7.828806889823529	-4.515505107029413	10.452241402720588
O	5.121189119823529	-5.857675557029412	8.146558152720589
O	4.0282120098235294	-2.463951207029412	6.882777192720589
O	7.484577209823529	-1.1981770570294124	5.988238042720589
O	8.354568889823529	-4.641156287029412	4.600496822720588
O	5.416214819823529	-4.658632207029413	2.308476862720588
O	5.97418586982353	-0.9987916270294124	1.2668073427205881
O	9.508641819823529	-1.7040806070294126	0.31549424272058807
O	8.29960851982353	-4.6353476670294125	-1.8347873072794119
O	5.608749869823529	-2.918611717029412	-3.881687697279412
O	7.74523421982353	0.19432306797058752	-4.254077477279411
O	10.59379391982353	-1.7556956570294127	-5.826863367279412
O	8.13135435982353	-3.774011777029413	-7.922288247279412
O	6.884181749823529	-0.41969127702941234	-9.289080567279411
O	10.22493211982353	0.8989216609705876	-10.575888197279411
O	2.4555981798235296	1.4048433459705876	-8.382189957279412
O	2.0419162498235295	-2.2732225370294126	-9.281750867279412
O	0.09592818982352935	-4.345238187029413	-6.764880857279412
O	0.9135728098235292	-8.028377917029411	-6.180251257279411
O	-2.4633063501764707	-8.839292157029412	-7.713279847279412
O	-3.2925280801764707	-4.332897547029413	-10.852484597279412
O	-1.5633451671764709	-1.0338728270294124	-11.688935997279412
O	-2.685798210176471	1.8991150679705875	-9.541780757279412
O	-4.989324600176471	7.507256452970587	-5.537394777279411
O	-9.69590841017647	8.454849182970587	-3.666706107279412
O	-8.41684918017647	11.052252642970588	-1.2001602772794118
O	-5.03058286017647	9.460351342970588	-0.4876643702794119
O	-2.9775280601764704	11.467877542970589	-3.0107192772794122
O	-0.5226331171764708	12.939934042970588	-0.5003943512794119
O	0.6931896498235293	9.648297152970589	0.954984332720588
O	0.6864166298235292	7.994335882970588	-2.4590491772794123
O	2.94012349982353	10.860593742970588	-3.808640227279412
O	5.350421479823529	10.405586012970588	-0.9060599072794119
O	5.734175399823529	6.751805092970588	-1.9085908072794118
O	6.4261986498235295	7.682678102970588	-5.517662637279412
O	8.787452569823529	10.554542942970588	-4.718427417279412
O	9.83686321982353	4.431840382970588	-6.072501687279412
O	5.71449474982353	6.472566182970588	5.1599384427205885
O	4.99317408982353	3.1867682029705877	6.939712492720588
O	3.6589032598235294	5.053702522970587	9.971914002720588
O	1.4872111398235293	7.2901128029705875	7.770570902720588
O	0.15404540982352932	4.343206602970588	5.904887012720589
O	-0.7468602011764707	2.672903902970588	9.185118212720589
O	-2.6380397501764707	5.770667732970588	10.293633002720588
O	-4.603493230176471	5.597381692970587	7.040872812720588
O	-5.40346647017647	1.9419671949705877	7.534974752720588
O	-6.66893846017647	2.6242846329705873	11.088965202720589
O	-10.32217204017647	3.1534620429705873	7.0511459727205885
O	-11.08008328017647	0.6537160889705875	9.787710122720588
O	-10.406186480176471	-5.346263357029413	5.7248873627205885
O	-9.58386458017647	-9.066102657029411	5.563259052720588
O	-4.647691700176471	-7.315931617029412	7.800699042720589
