95

O	0.06356716002463769	-3.270877402391303	-0.8398210293126086
O	0.9373379100246375	-2.798992022391303	-1.7734296559126086
O	1.7770952200246375	-1.8375328223913032	-1.3132449359126086
O	1.1066225900246376	-0.8225380523913035	-0.7512805981126085
O	-0.061712000975362336	-1.1634708623913033	-0.08293629191260854
O	-0.38373003597536237	-2.4773463223913037	0.12372646708739143
O	-0.5647959499753623	1.5184664396086966	-0.9997338319126086
O	-1.1407332579753624	2.818811017608697	-0.9992443839126086
O	-0.5094119829753624	3.9537290476086966	-1.3234171879126087
O	0.8582362400246377	3.7887747776086966	-1.2327736899126085
O	1.3933948900246376	2.5188061476086965	-0.9648176129126086
O	0.7703649300246376	1.2760278156086966	-0.8759329659126085
O	-0.8513453499753624	-3.343819892391303	1.2084643970873914
O	-1.2320751779753625	-4.834095282391303	1.1113277570873914
O	-0.3071503969753624	-5.494183292391303	0.23135577708739152
O	-0.7236889379753624	-4.542218472391303	-0.9024312989126085
O	-2.1809386299753624	-3.0391329023913034	1.5559827270873916
O	0.38185981002463754	-3.7065506823913035	1.8718761470873913
O	-2.1790256399753627	-4.2102478023913035	-0.9814082069126085
O	-0.39699741497536234	-5.290845162391303	-1.9988863629126086
O	3.1175252000246374	-2.2529467723913035	-1.5389046229126087
O	1.6397223500246374	0.36925052460869656	-1.4039883409126086
O	3.093544660024638	0.46870983760869656	-1.0553638359126085
O	-1.2429938479753624	5.187593667608697	-1.1407935869126087
O	-2.3848764099753623	5.350758887608697	-1.6723199479126085
O	-0.6298849159753623	6.406944547608697	-1.2401716039126085
O	-8.951743369975363	-6.193077642391303	-7.262032082912608
O	-7.761520959975362	-4.197743982391303	-4.172863722912608
O	-4.226952409975363	-4.821322192391303	-5.285004492912608
O	-4.718467499975362	-3.082957412391303	-8.620643922912608
O	-6.192403419975363	-0.02392374239130346	-6.881548022912608
O	-3.374790139975363	0.07003691560869663	-4.403241932912609
O	-0.7216812729753623	-0.20634057239130343	-7.127613762912608
O	-2.5329516099753624	2.4729921976086966	-9.10052564291261
O	-2.4790785099753623	4.792924637608697	-6.077836832912609
O	1.1949403200246376	4.008443117608697	-5.412359582912608
O	2.227252600024638	5.1191236576086965	-8.85446796291261
O	0.21573920002463765	8.316585927608696	-8.34740127291261
O	1.7500177300246376	9.010627707608696	-4.930781072912608
O	5.341380910024638	8.568201397608696	-6.265557952912609
O	3.743310460024638	13.496967407608697	-5.0576685829126085
O	6.632176610024638	11.958640107608696	-3.091278242912608
O	13.006713450024638	4.925417587608696	0.8487136470873915
O	9.966806450024636	5.369788687608697	-1.3666356469126084
O	8.101777580024637	2.2811838476086965	-0.13549085191260857
O	8.547225820024638	3.020653187608697	3.5713947370873917
O	7.787576570024638	6.672414917608696	2.8728435970873916
O	4.521078640024638	5.777073347608697	1.1191020870873913
O	3.592616500024638	3.2586864676086966	3.811558007087392
O	4.092007980024638	5.748336847608697	6.577931207087392
O	1.8474025700246377	8.212825107608696	4.702762867087392
O	-1.1744034089753623	6.005832777608696	3.9891378570873917
O	-0.9315693416753624	4.441348507608697	7.452093047087392
O	-1.1802876889753624	7.800158227608697	9.159176597087392
O	-3.9091803199753627	8.928930387608697	6.752220427087392
O	-5.862733909975362	5.827784227608697	7.883375857087391
O	-5.8861861099753625	6.564612967608697	11.62730578708739
O	-8.978373369975364	-0.48838456239130346	6.866146097087392
O	-6.831461859975362	2.0142225816086965	5.019165007087392
O	-7.595679119975362	5.172430197608697	3.046933497087392
O	-5.859412529975362	5.432745557608697	-0.32868303991260855
O	-4.745596299975363	8.790442807608697	-1.7635971099126087
O	-7.374941939975362	8.291510797608696	-4.464374322912609
O	-10.899371339975364	4.833823247608697	-1.8825061629126085
O	-11.237193949975364	3.0300745876086967	1.4723636670873914
O	-9.869216079975363	-0.5257104323913033	1.4831536770873914
O	-7.369392139975362	-7.351479042391303	1.3884914570873914
O	-7.404000249975362	-10.799169292391305	-2.4577543029126083
O	-4.803700469975363	-13.003213092391304	-0.7707620849426086
O	-2.782532089975362	-10.216526492391305	0.8945449770873914
O	-4.455314139975362	-10.356121292391304	4.300211167087392
O	-1.3449231489753624	-11.113897192391304	6.348448197087392
O	0.6646392100246377	-8.087616172391304	5.231372897087391
O	-2.4295440299753626	-5.874745972391303	5.338639347087391
O	-2.999889799975362	-6.935347062391304	9.00496833708739
O	0.6135987900246376	-6.147244352391303	9.90771818708739
O	0.05943585002463769	-2.6204526023913033	8.582435617087391
O	-3.0871520199753624	-2.2064242623913035	10.667277187087391
O	-1.6500521399753625	-3.7432695323913032	13.83545088708739
O	-2.1100275899753624	2.2721532676086964	11.851946387087391
O	6.641280730024638	-4.105896262391303	6.394732787087392
O	8.227869400024638	-2.0966356523913037	3.586410267087392
O	10.435470650024637	-5.040624072391303	2.6124439370873915
O	7.437961470024638	-7.392164312391302	2.6519926970873913
O	5.323239640024638	-5.039696572391303	0.5797886870873914
O	8.204196830024637	-4.853037452391304	-1.9475191929126086
O	8.319914760024638	-8.638100132391305	-2.1846713729126086
O	4.617368120024638	-8.681562832391304	-2.930414672912608
O	4.962526260024638	-6.002306062391304	-5.613794342912608
O	7.7508822100246375	-8.002833992391304	-7.307434202912608
O	2.6390723300246375	-9.173652092391304	-8.86739037291261
O	5.051343040024638	-8.003441892391304	-11.527940612912609
O	1.8802439900246377	-1.6349868823913034	-12.904933712912609
O	2.2542987300246375	1.9560111806086966	-14.144411412912609
O	6.0803588800246375	2.216900717608697	-9.943112182912609
