77

O	0.3533185405828134	1.1391162041562506	-2.4994403024062497
O	1.8944126105828132	2.4831374421562504	-2.60883441240625
O	1.8825881605828134	3.1762158421562505	-1.2917330024062497
O	2.9179315005828133	2.5441384721562503	-0.4316339094062498
O	3.689872680582813	1.4195343821562505	-1.0248994224062498
O	0.9759580605828133	0.2584763661562505	-0.8390569234062497
O	0.7402659705828134	1.0953507671562506	0.4149831025937502
O	1.0927854505828134	0.17447056115625048	1.5460479875937503
O	2.5605050105828133	0.037643826156250504	1.8157021775937503
O	-1.1916858434171866	2.2169107921562503	-1.9108838724062498
O	-2.0186173394171867	1.4489160321562506	-0.9096316394062497
O	-1.7053282994171868	-0.003858684843749516	-1.0667170024062498
O	-1.8096850294171867	-0.8498459878437494	0.15686112759375023
O	-7.851450129417186	2.6201512221562506	5.490449177593749
O	-6.219638129417186	4.57072667215625	2.6954354575937503
O	-5.2943704794171875	7.48547383215625	4.94045127759375
O	-3.704551399417187	5.092059322156251	7.44374240759375
O	-1.8314433094171867	3.2981220321562503	4.68126607759375
O	-0.5080966264171867	6.53320654215625	3.2079194575937504
O	0.3930121605828134	7.743848182156251	6.70316563759375
O	2.388647860582813	4.54635515215625	7.31198887759375
O	4.049899430582814	4.7868453421562505	3.9195339875937503
O	5.403191620582813	8.26268615215625	4.64689800759375
O	6.716952330582814	6.938376082156251	7.96505621759375
O	8.387371930582814	3.9323250721562504	6.34865142759375
O	10.123130800582814	6.032366322156251	3.67902109759375
O	13.706365000582814	2.8389247321562507	3.9609285275937505
O	12.226354400582814	1.3029506341562505	-6.07215831240625
O	10.626277200582814	2.7092261921562506	-2.94620946240625
O	7.074275700582813	1.4795129241562504	-3.7267848324062496
O	8.127389770582814	-2.0910091378437494	-4.48059813240625
O	10.486365400582814	-1.9794728078437493	-1.5090456724062498
O	7.6839568105828135	-0.9188655078437495	0.8244235225937503
O	5.307532920582814	-3.4761118178437496	-0.6259510704062498
O	7.751483840582814	-6.31996074784375	-0.20163500040624976
O	8.214534010582813	-5.268794077843749	3.4329299075937505
O	4.6258373105828134	-5.091726717843749	4.60878006759375
O	3.736393160582813	-8.22179929784375	2.63813500759375
O	-5.171199089417186	-8.78408836784375	5.8540970875937495
O	-1.9452711894171866	-6.846391057843749	6.22224768759375
O	-0.026514610417186724	-5.463454447843749	9.18526480759375
O	1.1010656405828134	-1.8361019678437496	8.85368998759375
O	-2.5400458294171866	-1.3616860278437495	12.658282717593751
O	-4.014792769417187	-4.47341737784375	11.016595917593751
O	-5.976762879417187	-3.768740267843749	7.84244328759375
O	-9.859347999417187	-2.3325517278437493	1.8843809575937502
O	-12.716354899417187	1.8119820621562506	0.7664722465937502
O	-12.784570599417187	1.0260290221562505	-2.94580266240625
O	-9.301252189417186	-0.4775663278437494	-3.2145561224062495
O	-10.247581439417186	-4.11858302784375	-2.8584441324062495
O	-8.845062349417185	-5.303715747843749	-6.1792664324062505
O	-5.287930619417187	-4.145349727843749	-5.60266004240625
O	-5.429995129417186	-5.221233957843749	-1.9489289924062496
O	-6.466814309417186	-8.76563131784375	-3.08239601240625
O	-3.591722899417187	-8.93727644784375	-5.5601255824062505
O	-1.2060984224171867	-8.20008193784375	-2.68388281240625
O	-2.7244938694171865	-10.94987144784375	-0.5616029934062498
O	-2.9133542994171866	-13.49588354784375	-3.36960281240625
O	2.5552674805828133	-11.78417584784375	-2.47412075240625
O	1.4541236705828133	-12.44051864784375	1.1087032375937502
O	0.005249350582813284	-15.904563547843749	0.5292050145937502
O	1.5279581605828132	-4.45009503784375	-8.07871899240625
O	3.9535889705828136	-1.6097387078437493	-7.39583006240625
O	2.9234200005828135	0.18143484915625052	-10.59854138240625
O	-0.7680471267171867	-0.24671546184374948	-9.765266952406249
O	-0.31995210541718666	1.0377939471562505	-6.273722732406251
O	1.4947127405828131	4.092424832156251	-7.66986718240625
O	-1.4350344564171866	4.807311882156251	-9.95255614240625
O	-3.750978029417187	4.707838302156251	-6.93618054240625
O	-1.5093762004171867	7.072481432156251	-4.9648193124062505
O	-1.4527028424171866	9.57393421215625	-7.84880340240625
O	-5.241081539417186	9.42275452215625	-8.01281421240625
O	-5.573329149417187	10.08127463215625	-4.26375179240625
O	-3.315646559417187	13.08459125215625	-4.7656584424062505
O	-0.33050181141718665	12.92395595215625	1.8563497675937504
O	2.6806425305828134	13.75708435215625	4.0416390275937495
O	5.430365080582813	10.53112443215625	0.2521550975937502
