95

O	-2.174235481894118	-2.5102425772500006	2.203766356024999
O	-2.396778021894118	-1.4082877172500003	3.098041646024999
O	0.9269253781058824	5.52126634275	-3.008682353975001
O	-2.9154409918941178	-3.55148996725	0.720633016024999
O	-1.8523899918941176	-3.7266446572500005	2.875429746024999
O	2.9630638281058825	5.23169170275	-3.122769483975001
O	-3.5853868818941175	-2.5195459872500003	1.7000828260249992
O	2.4473749881058824	-1.3136198272500006	-1.886647243975001
O	3.0272635881058823	-0.7145346172500004	0.03948725502499906
O	-4.0024200218941175	-3.200340077250001	-0.12314402997500096
O	-2.9808286718941175	-4.83803703725	1.338463976024999
O	-1.6462739518941176	-2.94967275725	0.2807576460249991
O	-1.2409814388941176	-1.9904016172500003	1.1436690160249992
O	-0.17524876189411764	-1.1721264772500004	0.7745266060249991
O	0.7050039281058824	-1.3534863272500006	-0.24444796797500096
O	0.5781634281058823	-2.6542456972500004	-0.7268760746750009
O	-0.7087780048941176	-3.19735596725	-0.680694650575001
O	1.9123237281058825	-0.6713487872500006	-0.7490746869750009
O	3.756755558105882	-1.6752699672500007	-1.673681943975001
O	3.7143850081058827	-1.9169164172500004	-0.21451202897500093
O	1.8239072981058824	0.7383313307499996	-1.183046171975001
O	2.9615785981058824	1.3732597767499994	-1.595003541975001
O	2.963168818105882	2.7484526527499993	-1.9453493139750009
O	1.7890292881058825	3.4772849527499994	-2.061615983975001
O	0.7800431581058824	2.6365156127499993	-2.248759283975001
O	0.7587422081058823	1.5239641117499996	-1.357249465975001
O	1.8125230081058823	4.82926323275	-2.5054590439750006
O	-10.953208501894117	-2.7933979972500005	-6.328332283975001
O	-8.860088001894118	-0.8284536672500007	-3.750092313975001
O	-6.188488861894118	-3.441536427250001	-4.048716073975001
O	-5.732853631894118	-2.8890346572500007	-7.775750503975001
O	-5.341198371894118	0.8603744737499995	-7.238772353975001
O	-2.8648814618941176	0.2791607327499994	-4.381222973975001
O	-0.7850528758941177	-2.1276946872500004	-6.478166983975001
O	-0.8928643648941177	0.3161524217499996	-9.375385993975001
O	0.4186527581058823	3.0738902527499996	-7.039367823975001
O	3.0946853081058823	0.8337320337499996	-5.669572943975001
O	4.543861688105883	0.09897840274999958	-9.071210863975
O	4.542655578105883	3.8371028427499994	-9.781398943975
O	6.177361438105882	4.71791265275	-6.440050213975001
O	8.992579128105882	2.1386784877499996	-7.004231893975001
O	10.267931798105883	7.27193174275	-7.499958933975001
O	11.864152698105883	5.2393844527499995	-4.708481983975001
O	13.545738198105882	-2.4004453072500005	1.9850745260249991
O	11.172168398105883	-1.1875527672500006	-0.730189763675001
O	7.996120338105882	-2.3502370472500003	0.997001626024999
O	8.825332328105883	-0.7676093472500005	4.398939816024999
O	10.110467398105882	2.3328996427499993	2.562743866024999
O	6.871775858105883	2.7307803327499993	0.588566796024999
O	4.748642498105882	2.0150154517499996	3.710737746024999
O	6.5057829881058815	4.65782333275	5.713882596024999
O	5.883174908105882	7.1261226427499995	2.847373376024999
O	2.176802138105882	6.66582610275	2.2787383860249992
O	1.5547534981058826	6.42937132275	6.061526336024999
O	3.1326477781058824	9.800111832749998	6.713136376024999
O	1.4072716081058823	11.286221832749998	3.657267936024999
O	-1.8979859818941176	10.155060222749999	5.2433783760249995
O	-1.5223234288941176	11.974097162749999	8.583484476025
O	-4.719926381894117	6.61597139275	3.401731286024999
O	-3.6701646418941176	8.87435776275	0.5319268760249991
O	-2.0459189618941176	7.09009534275	-2.409113763975001
O	0.6217371981058823	8.81901342275	-4.505400243975001
O	-1.8667494818941177	8.88443118275	-7.371612473975001
O	-6.638321211894118	8.69215317275	-4.572347923975001
O	-7.906231981894118	8.50572559275	-0.9804914779750009
O	-8.613771021894117	4.934504532749999	0.242718632024999
O	-10.219962771894117	-1.7444259572500003	2.421704186024999
O	-12.096762301894117	-5.71078368725	-0.29118205597500096
O	-11.060999301894118	-8.25651898725	2.332328096024999
O	-7.888304421894118	-6.522266727250001	3.5228014460249994
O	-9.371962731894117	-4.694705857250001	6.499663856024999
O	-7.131807501894118	-6.2212734672500005	9.174938696024999
O	-3.8240088218941177	-5.164923987250001	7.601111886024999
O	-5.300198571894118	-1.7766744872500007	6.620432736024999
O	-6.294814731894117	-1.1710043872500004	10.243035326025
O	-2.825745571894118	-2.0862173372500004	11.451941026024999
O	-1.4165642638941176	0.6033723747499995	9.192323296024998
O	-3.8438705418941175	3.1878152027499995	10.512456026025
O	-3.4510190518941175	2.2427064987499996	14.187514026025
O	-0.6261960340941176	6.69096715275	10.625721226024998
O	3.3322340681058824	-4.6266458772500005	8.618290276024998
O	5.753507418105883	-4.712238907250001	5.699796066024999
O	6.061683678105883	-8.50163673725	5.951832406024999
O	2.2770241581058825	-8.867889637250002	6.119835546024999
O	1.7749515281058823	-6.583565757250001	3.127752506024999
O	4.257791078105882	-8.633662777249999	1.183839676024999
O	-0.8051960618941176	-10.283169937250001	0.7282476860249991
O	0.9377423181058824	-9.17044973725	-2.486045523975001
O	-2.7333833818941176	-11.533540037249999	-5.067497803975001
O	-0.0805147048941176	-12.73863853725	-7.522891493975001
O	-5.386714241894117	-8.090893977250001	-9.560484363975
O	0.5924068781058824	-6.454213287250001	-11.124624573975002
O	2.8400557681058824	-4.15721034725	-13.185136273975
O	6.230188818105882	-4.52352937725	-8.644373803975
O	6.346172938105882	-7.96970028725	-10.291690393975001
