25

O	62.2311460955702	47.60816712641931	30.581280602625014
O	61.23614155251404	46.75990121939744	30.330480673479794
O	60.541073646277894	46.85808749036642	29.205418238227104
O	59.303677673420474	46.26961473252849	28.919125542224357
O	58.643226334927874	45.592549192934285	29.95151133581258
O	57.279386867678305	45.12592720768235	29.846260743649136
O	56.087001196337226	45.55742575770987	29.97027966896965
O	54.74555479133274	45.173234276132206	30.098767358195737
O	53.74400855444231	45.36014281654125	29.3895933750024
O	54.36987664368248	44.3819229318703	31.12767555096321
O	59.53436774391665	45.37807887187261	31.02840793415373
O	60.65910613521706	46.00914579854484	31.302224215261276
O	61.770797329753975	45.23490245650137	31.875329906388703
O	62.121106245099476	45.732686170710615	33.03810368030859
O	63.49550224780056	45.58781087500086	33.409755599331255
O	64.0662653805993	46.26971378683771	34.60739146106588
O	63.103329515907646	47.428303104127636	34.69696718642847
O	61.95316936523431	47.12271106272098	35.259384042778734
O	63.99176369088822	45.99027996106568	32.17288403827927
O	64.02886002200216	45.12453080208944	31.16830655769833
O	62.754273668873765	44.64249674444345	31.056542953934617
O	62.207513843249	44.76599595368796	29.7631167395151
O	62.912843885567895	44.839329769225216	28.6901816732042
O	63.33340428990808	46.01679680358555	27.995930381568648
O	64.16185815034123	46.79232965820967	28.919370710819546
