91

O	0.9247350864925379	1.3562880951164176	3.6246156687955224
O	-5.822042753507462	0.8782014041164177	-4.198881051204477
O	2.055630756492538	0.47264851711641764	4.141030548795523
O	-5.074424063507463	2.694107591116418	-3.4588666212044776
O	-3.164644183507462	-0.40022243888358244	-2.6008351312044775
O	-3.674734343507462	0.7377661497164176	-3.3512145012044776
O	2.6910087464925376	-1.8501405488835823	3.206218038795522
O	-0.3608401905074622	-1.1436417588835823	-0.37014623020447757
O	1.530973166492538	-3.3788465688835823	1.5721920587955223
O	1.9131076564925378	0.07117001011641766	-0.30708687620447755
O	1.9837741864925378	-3.4878501388835828	-0.8870680782044775
O	3.0604764164925378	0.5075600481164176	3.0282932387955226
O	-1.7743890835074623	-0.2936387148835824	-2.1325649412044774
O	3.265047976492538	-0.7950239688835823	2.317373518795522
O	-0.8216646315074622	-1.2971044088835824	-1.7004676712044775
O	1.2466023164925377	-1.4155992488835825	2.9536702987955223
O	-0.44267449250746216	-0.023931495883582343	0.47717114879552236
O	0.6342820264925377	-2.5620096388835822	2.388074318795522
O	0.8516241264925377	0.5911122381164176	0.47636734879552245
O	0.4922337664925378	-3.9905719088835827	0.7010768087955224
O	1.8329207964925378	-1.1090433588835824	-1.1272622732044777
O	0.6960711964925379	-4.112396498883583	-0.7283430836044775
O	2.083574746492538	-2.2239528788835825	-0.24361706120447757
O	-5.006162983507462	1.2871064461164177	-3.3060977212044778
O	-5.728587493507462	-0.9838571788835824	11.718137258795522
O	-4.446006073507462	1.0369940411164176	8.706012098795522
O	-2.7802345435074622	-2.1184364188835825	7.5289565887955225
O	-6.014393723507462	-4.050101188883582	7.241121938795523
O	-7.561844243507462	-1.2144245888835823	5.203027838795522
O	-4.608058363507462	-1.0387373988835824	2.9665744887955228
O	-4.654711723507463	-4.800017188883582	2.3691445387955223
O	-8.332186143507462	-4.672823238883582	1.7428935287955223
O	-7.895170503507462	-1.9605056388835824	-0.8741044962044776
O	-4.933409253507461	-3.8406152788835826	-2.4702548512044773
O	-7.008114583507462	-6.909298408883583	-3.065839401204477
O	-9.730424283507462	-4.709963698883582	-4.593656081204478
O	-7.315567813507462	-2.8949089588835824	-6.899860671204477
O	-5.720572513507463	-6.140369258883583	-8.145240521204478
O	-8.818290893507463	-3.340541998883582	-11.466446241204478
O	-5.149140863507462	-3.8524449188835828	-12.323356341204478
O	4.7999511064925375	-6.053369428883582	-11.463427241204478
O	1.5448526764925377	-5.794010198883583	-9.506100581204478
O	3.108291886492538	-4.302643508883582	-6.411273961204477
O	5.054866876492538	-1.5670098388835823	-8.175710871204478
O	2.036677026492538	-0.9679692788835823	-10.404597091204478
O	-0.27440337050746216	-0.4851175988835823	-7.490481251204478
O	2.255724366492538	1.7053560011164177	-5.666058291204477
O	2.689368686492538	3.9808770511164178	-8.564328151204478
O	-1.1199070315074622	4.343366861116418	-8.710381181204479
O	-1.9120132735074622	5.252521151116418	-5.119966341204477
O	1.1819415564925377	7.494992691116417	-4.938756611204477
O	0.04688885149253785	9.574817981116418	-7.861871791204478
O	-2.148945613507462	11.088956251116418	-3.3450426612044772
O	-0.37520642850746216	14.113363651116419	-4.849109601204478
O	-2.108283293507462	8.797429381116416	0.9577488787955224
O	-5.532989613507462	8.244079861116418	-0.6171392225044776
O	-6.735063513507463	4.6722123911164175	-0.9161835972044776
O	-8.885285273507463	3.5027528211164176	-3.8309723112044773
O	-11.685683283507462	2.9600193811164175	-1.3119428322044775
O	-10.071154733507463	6.420161121116418	2.761992988795522
O	-7.240090653507462	8.869700821116417	3.5198063287955224
O	-4.395586093507462	7.366758631116418	5.544408578795522
O	0.9420680564925379	4.472204201116417	9.547834058795521
O	0.6906406664925377	0.8682047101164176	13.216236158795521
O	4.421652886492538	0.16938329211641756	13.083400158795522
O	4.9159326164925385	0.7692049963164176	9.364534158795522
O	6.035990046492538	4.385727521116418	9.526832858795522
O	9.417812716492538	3.9015467011164175	7.850934808795523
O	8.126905816492537	2.3958708111164175	4.619870318795523
O	5.176365506492537	4.835403091116418	4.616698878795523
O	7.617059516492537	7.739539981116418	4.800607458795523
O	9.711787216492537	6.391080341116417	1.9200272887955225
O	6.545334486492537	6.353983251116418	-0.20796772420447757
O	5.761988116492537	9.942944121116419	0.7161522387955224
O	9.323633896492538	11.218615251116418	0.32625347879552247
O	4.392599406492538	11.162654451116417	-3.651314951204478
O	9.846521516492537	0.39210673111641764	-2.1739005912044775
O	7.995747236492537	-2.3593290988835824	-4.014677351204478
O	10.290474216492537	-5.0266687588835826	-2.6119569012044774
O	10.035821316492537	-3.613152208883583	0.9191681187955225
O	6.369405056492537	-3.5690193088835827	0.7679185587955224
O	6.284794526492538	-7.187524908883582	-0.3509625242044776
O	8.384847146492538	-8.120520598883584	2.6482870087955224
O	5.865716196492539	-6.433402028883583	4.938610488795523
O	2.998917626492538	-8.346640418883581	3.3371485687955227
O	4.694531786492538	-11.64568464888358	3.7348849487955222
O	1.577228206492538	-9.906310548883582	7.941319158795523
O	0.6824251064925377	-13.22523424888358	6.343067428795522
O	-5.657873913507462	-11.103006248883581	3.4875891587955223
O	-8.224592173507462	-11.585443848883582	0.7272710787955223
O	-3.760972643507462	-10.603727448883582	-2.6615892012044773
