98

O	-1.6345354722782601	-2.578811853668116	0.6758894426231881
O	-2.3866175382782604	-0.011093727668116116	-2.181078627376812
O	-2.8297086482782605	-2.593536783668116	0.1676561336231882
O	5.431278181721741	4.039037576331884	-0.8919671503768118
O	-0.8290907482782602	-1.5141374636681162	0.5308544026231881
O	5.833058991721741	2.0949830363318838	-1.2579593073768118
O	-1.3990148322782603	-3.5491441236681163	1.7495671626231883
O	-2.72144825827826	-2.308663143668116	-1.2146783353768118
O	-3.30337781827826	-4.008282473668117	0.29042391962318814
O	-2.45396122827826	-0.9270968236681162	-1.1963111203768118
O	-1.5635400822782604	-0.612777223668116	-0.2569928753768118
O	-2.3112772382782603	-4.690909053668117	2.002679632623188
O	-3.5572527282782604	-4.130350983668117	1.7384191826231883
O	-2.27211602827826	0.567917020331884	0.38199735562318815
O	-2.47669910827826	2.193684976331884	-1.8256613273768119
O	-1.7618853612782601	-2.651700893668116	2.861445552623188
O	-0.16510679527826022	-4.1046522436681165	1.3576784626231881
O	-2.3018274082782604	-4.827341723668116	-0.3734168033768118
O	-4.53785441827826	-4.077220933668117	-0.12969918537681185
O	-1.0871795312782602	0.9238560777318839	0.6187523726231883
O	-3.14037908827826	0.07806192933188394	1.4212882926231882
O	0.21951839172173981	0.7687379653318839	-0.01881310437681183
O	1.1032383817217397	1.830971690331884	-0.3933962303768118
O	2.2391786917217398	2.421528186331884	-1.0250757893768119
O	3.5094402817217394	2.558238626331884	-1.1427592783768117
O	1.87692611172174	3.902513636331884	-1.223027788376812
O	4.7645567817217405	2.998386596331884	-0.9512691333768118
O	-1.6133298112782604	1.0644507768318838	-2.151163197376812
O	-1.4159983192782604	3.186840146331884	-1.551541847376812
O	2.2878378317217396	-11.497339543668115	-5.162628757376812
O	2.9298395517217397	-8.914917933668116	-2.3886877873768118
O	-0.09801702127826029	-6.955330973668117	-3.547551087376812
O	1.3714872817217398	-6.5555047236681165	-7.068901937376812
O	4.5850798717217405	-5.156618533668117	-5.577904237376812
O	2.70500215172174	-2.863312873668116	-3.2709851873768114
O	0.6307701317217398	-1.594975113668116	-6.184590517376812
O	3.6820433017217398	-1.135231843668116	-8.272470607376812
O	5.35743904172174	0.9050641524318839	-5.515326957376812
O	2.25532320172174	2.966911596331884	-5.033131207376812
O	2.1272962717217396	4.074260306331884	-8.618502707376813
O	5.80207537172174	5.009452636331884	-8.314438867376811
O	5.30293538172174	6.967090656331884	-5.083566197376812
O	2.37193542172174	8.969687036331884	-6.5308873673768115
O	7.005400561721739	11.510922056331884	-5.830816447376812
O	3.95930297172174	12.628751156331884	-3.835294777376812
O	-5.37134277827826	12.613566956331885	0.5587809326231881
O	-2.93835876827826	10.591092976331884	-1.5412185903768119
O	-3.7854793582782604	7.246221846331884	0.1401143466231881
O	-3.3673386682782604	8.478605226331885	3.709518422623188
O	-0.2932458312782602	10.450914596331884	2.6447867826231883
O	1.3829714017217398	7.443665116331884	1.1814422226231882
O	0.3895310017217397	5.1871770263318835	4.124603522623189
O	1.8660164217217399	7.611514266331883	6.605095922623188
O	5.14400082172174	7.596520016331883	4.5767749726231886
O	5.75300750172174	3.860929556331884	4.275005582623188
O	4.59142858172174	3.287483436331884	7.877677562623188
O	7.195849181721741	5.681958246331884	9.247581682623187
O	9.10214168172174	0.8487053573318839	8.411183152623188
O	9.76541028172174	1.768743875331884	12.054924022623187
O	6.95753134172174	-2.825757143668116	5.980024282623188
O	9.64791398172174	-1.318277483668116	3.720270142623188
O	8.42949714172174	-0.336103363668116	0.25474409762318817
O	10.00023428172174	2.6515359063318837	-1.586600797376812
O	11.38544848172174	0.16293250933188386	-4.093894457376812
O	11.58982648172174	-4.411190283668116	-0.9736007083768119
O	10.71401378172174	-5.542751033668116	2.5654329926231885
O	7.263938581721741	-7.096701403668116	2.883939972623188
O	0.7250301917217397	-10.313404443668116	3.4755585226231887
O	-1.8144422762782604	-13.170442543668116	0.019012572623188118
O	-5.152864438278261	-12.762270143668115	1.802363542623188
O	-4.60936684827826	-9.181593143668115	3.045137362623188
O	-3.3643218482782604	-10.065391843668115	6.537635052623188
O	-6.047202788278261	-8.183424983668116	8.478323902623188
O	-5.420345118278259	-4.773130253668117	6.889416022623188
O	-1.6591582732782602	-5.353850783668117	6.9360621526231885
O	-1.8407774902782603	-6.052677903668116	10.718150922623188
O	-3.84267770827826	-2.874396303668116	11.274049122623188
O	-1.0450785130782603	-0.9391772836681161	9.535848422623188
O	1.5562435417217397	-2.563610493668116	11.812958122623188
O	4.05090977172174	1.383170436331884	12.507833122623188
O	-6.87602944827826	2.309436386331884	7.324098502623189
O	-6.70416000827826	4.561193416331884	4.263466912623189
O	-10.368797698278259	3.889500686331884	3.4894042926231883
O	-9.88433615827826	0.14342660033188392	3.9485144326231882
O	-6.8241954082782605	0.11272466033188389	1.7295445126231883
O	-8.70373411827826	1.9192789463318838	-0.9294273123768118
O	-11.58458271827826	-0.564589933668116	-0.7756583093768118
O	-9.05150455827826	-3.319167183668116	-1.2972921463768117
O	-7.490834178278261	-1.513682173668116	-4.282379437376812
O	-10.91840853827826	-1.205035603668116	-5.860689457376812
O	-8.108967088278261	-5.770176573668117	-6.952181867376812
O	-9.18149300827826	-3.610538423668116	-9.896100137376813
O	-3.06806114827826	-7.614649813668117	-10.183080077376813
O	-2.5059725782782603	-1.474958063668116	-11.876870777376812
O	-0.31958451127826026	1.209622442331884	-13.493003377376812
O	-2.7143119482782603	4.551034456331884	-9.585712737376813
O	-5.51764679827826	3.726368316331884	-12.054440977376812
O	-9.41207515827826	5.190717286331884	-8.981442297376812
