93

O	-0.977202046057143	1.575772947299014	2.151094882142857
O	2.279974521942857	-0.2254140767009859	3.598442352142857
O	3.0484894919428567	0.7596012632990141	4.343691542142857
O	0.3633858919428571	2.088192273299014	1.8576550821428568
O	-2.409281118057143	-2.899127716700986	-5.427584227857143
O	0.994271521942857	3.044732193299014	1.0705203821428568
O	-1.048469013057143	-1.532452376700986	-5.779073857857143
O	1.6450243119428567	2.074079233299014	0.0904394391428569
O	2.849677481942857	2.2706732332990143	0.9151472821428568
O	2.708811001942857	1.847276171299014	2.266169332142857
O	1.4245441319428571	1.6618807252990142	2.684699682142857
O	1.147680681942857	0.0917633722990141	2.767753362142857
O	-0.04931487705714299	-0.39398921670098586	2.722070142142857
O	0.065698406942857	-1.723845356700986	2.187274672142857
O	0.4829615419428571	-0.9051646567009858	1.210206692142857
O	-0.06115812005714294	-0.7419360467009858	-0.09533489385714311
O	-0.26069410505714297	-1.3941367067009858	-1.1487668748571431
O	-0.864242950057143	-2.052183886700986	-2.3227425178571433
O	-1.2343996780571431	-2.328689826700986	-3.505845847857143
O	-1.8485403780571428	-2.028645556700986	-4.688686217857144
O	3.731213201942857	1.6612495102990141	3.299767412142857
O	0.5012859019428569	-2.147766656700986	3.505887602142857
O	-2.102263128057143	-2.092547986700986	-1.5334163478571432
O	12.413947391942857	3.066972893299014	-2.292243127857143
O	8.659023141942857	3.728264883299014	-2.671403537857143
O	8.069357021942857	1.1330924492990142	0.045270548142856915
O	9.700516691942857	-1.6386912867009862	-1.983088857857143
O	7.5382857419428575	-0.7958717267009859	-5.016435517857143
O	4.434650821942857	-0.7221648167009859	-2.905027667857143
O	5.201093131942858	-4.078584886700986	-1.305954123857143
O	6.066004161942858	-5.498870676700985	-4.704527057857143
O	2.675074501942857	-4.367982696700985	-6.076949837857143
O	0.8916944319428569	-5.7540835267009856	-3.0260535478571433
O	2.2137080519428567	-9.168626636700987	-3.4886896578571434
O	1.135820931942857	-8.976468526700986	-7.1646878378571435
O	-2.377310418057143	-7.761198556700985	-6.318470667857143
O	-2.897404928057143	-10.556018136700986	-3.7209565478571434
O	-5.5777896080571425	-10.807074136700987	-8.324257497857143
O	-7.510722698057143	-10.473399436700987	-5.060141477857143
O	-9.612188498057142	-8.634287466700986	4.832945152142857
O	-6.830827798057142	-8.551527216700986	2.2339068821428567
O	-5.265218258057143	-5.371342766700986	3.4996063321428568
O	-8.445101328057143	-3.323411326700986	3.634462252142857
O	-9.530848108057143	-4.874912756700986	0.3382246121428569
O	-6.365485428057142	-3.867666596700986	-1.384473547857143
O	-6.456426248057142	-0.36490216670098585	0.2081696021428569
O	-9.939980968057142	0.2670422702990142	-1.0032339678571431
O	-8.796374938057143	-0.7492599567009858	-4.525048537857143
O	-5.720086328057143	1.418246429299014	-4.953230547857143
O	-7.501201818057143	4.356840453299014	-3.2538563678571433
O	-10.342312458057142	4.3279018332990145	-5.731878907857143
O	-7.909742258057142	3.775978023299014	-8.611476287857144
O	-6.1580221380571425	6.984898513299014	-7.467823227857143
O	-9.171798558057143	9.328680903299013	-7.593409687857143
O	-1.664400480057143	7.080579973299015	-5.595718807857143
O	-1.572330543057143	4.827088453299014	-8.644913037857144
O	-0.14044332905714296	1.366463061299014	-8.067187777857143
O	-1.421657047057143	-1.649481346700986	-9.996328857857144
O	1.9778350619428569	-1.8060573967009859	-11.698482207857143
O	3.644945381942857	3.452693073299014	-11.123732207857143
O	2.393962471942857	6.743850473299014	-9.654979837857143
O	3.634648201942857	7.405162793299015	-6.118998127857143
O	6.169178461942857	8.703094183299013	0.6413484121428568
O	10.743113391942858	7.4611162232990145	2.7167012821428567
O	9.481316691942858	8.010033193299014	6.2718183921428565
O	5.876892311942857	6.881172373299014	5.7495789821428565
O	4.3291722419428575	10.308197093299013	5.154396142142857
O	1.794271011942857	10.177724463299013	8.003783532142856
O	0.05525908694285697	6.933992963299015	6.912369762142857
O	0.267289471942857	7.934719443299015	3.281845202142857
O	-1.502800272057143	11.283508663299013	4.093541642142857
O	-4.254694938057143	9.443054393299013	5.978249032142857
O	-4.912925468057143	7.414457563299014	2.825346202142857
O	-5.112029918057143	10.519222503299014	0.6969281821428568
O	-7.207416388057142	12.550387363299013	3.1518968221428567
O	-8.842983248057143	9.022528113299014	-1.8690435978571431
O	-5.761522318057143	2.682898893299014	8.057364542142857
O	-5.5966928780571426	-1.0376991667009858	7.2502754921428565
O	-4.388960468057143	-1.8157677767009859	10.773122692142858
O	-1.753628323057143	0.9280818653680141	10.588679792142857
O	-0.542006744057143	-0.26139609670098596	7.254496202142857
O	-0.23129457705714296	-3.7960587167009856	8.660222802142856
O	1.886225281942857	-2.490312766700986	11.537631192142857
O	4.2023828819428575	-0.8271297167009858	9.030205012142856
O	4.493243421942857	-4.0294056867009855	6.971474892142857
O	5.425959511942858	-5.996241236700985	10.085611992142857
O	9.569006591942857	-3.5827418967009863	7.398687532142857
O	9.693109491942858	-7.342230896700985	7.830885922142857
O	12.676296091942858	-4.101850386700986	1.978279452142857
O	8.787433731942857	-9.052632276700987	0.8402102921428569
O	7.578307731942857	-11.611584336700986	-1.7203368578571432
O	2.661994781942857	-10.937406336700986	1.0873669121428569
O	4.973610391942858	-12.843604436700986	3.458135672142857
