22

O	60.57541618679518	46.96836664730705	30.401814796123354
O	62.34494890338534	49.1456207704476	33.26631033783288
O	65.64543790433102	44.07425208344182	32.134180616333836
O	65.50487436402781	46.26832940349702	31.32525195702204
O	63.20798528016018	45.95814855049752	28.615714155084053
O	63.97630799793329	44.93676092204825	28.745970504526905
O	63.58479297341243	44.15759485023893	32.12057651764609
O	62.90549620361939	48.70581700772492	31.98796636641143
O	61.51215792996762	46.81172134608006	31.347603245388015
O	64.16868118326812	46.96090231555706	29.160764793695567
O	61.74076613457561	45.932713129081804	32.448049828481516
O	64.5162470293303	43.86879490032251	31.040988305639722
O	63.64694518828381	45.579110196452355	32.09540305661241
O	64.50604333898026	44.880136296442885	30.02826249423083
O	63.301950257132724	46.80033343975307	30.902449294411813
O	62.54765484299124	45.80327176662433	30.818141726162672
O	64.46741329451707	46.22819445918674	30.35654523439977
O	62.26869634251687	49.4398193108544	31.104077058919938
O	63.593823293403325	48.06531213219061	28.763944004133364
O	60.89978783138698	45.79130057317879	33.31696038112353
O	63.80516551417684	47.965819739956615	31.398684481339025
O	63.027002712920414	46.100807239049885	33.07849020592541
