96

O	-4.505900975843235	-1.7435300909608826	-3.194001177075
O	-5.295668925843235	-2.3454308509608826	-2.4482883270749998
O	-3.127250495843235	-1.9419758109608827	-2.727142197075
O	-4.684468465843235	-2.1354393709608828	-4.483091707074999
O	-2.8758255558432353	-1.5167409609608828	-1.496244742075
O	1.201284744156765	-2.917080360960883	-1.319004457075
O	-1.5894843068432352	-1.1014157309608827	-1.1454728780749999
O	1.5192594141567648	-1.1225900909608826	-2.405714287075
O	-0.5460830748432353	-1.6259512909608826	-1.7594765370749998
O	-0.7784571498432352	-2.249742150960883	-2.934126607075
O	-2.063517835843235	-2.2102519509608824	-3.484456567075
O	0.8447597241567649	-1.5351640209608828	-1.2949526210749998
O	1.1251951741567647	-0.9007664209608827	-0.009449051074999826
O	2.105360814156765	-1.6312036409608828	0.6522160429250002
O	2.210300844156765	-1.4227230109608828	2.0396724329250002
O	2.276093214156765	-0.1205290209608828	2.481638742925
O	1.327023854156765	0.6221888345391172	1.887011742925
O	0.8733597241567649	0.26170556303911724	0.6474811829250001
O	1.1008873041567648	1.8181190890391172	2.708787612925
O	1.6422044341567648	2.182866299039117	4.0871896929250005
O	2.949322444156765	1.6770803390391174	4.204035592925
O	2.480429894156765	0.22919591303911724	3.891626312925
O	2.523821134156765	-2.9261067809608825	-1.725701537075
O	2.378859904156765	-2.0512163009608826	-2.915531287075
O	2.0044320741567647	2.7630776090391174	2.143898072925
O	-0.17565761084323517	1.675950779039117	3.309318472925
O	3.726826224156765	-0.1819829899608828	4.313014282925
O	1.3815652341567648	-0.09591789196088274	4.816025272925
O	-3.8148534058432353	-3.8190036709608823	11.969326892925
O	-3.942362715843235	-1.5011586009608826	8.880143142925
O	-0.7630597878432352	-3.0852198609608825	7.634211002924999
O	-2.346052925843235	-6.578844240960883	7.547119822925
O	-5.276812495843235	-5.253212590960883	5.500274052925
O	-2.955252935843235	-3.4098252709608823	3.0952811429250002
O	-0.8105781965432352	-6.510913650960883	2.595222492925
O	-3.936198415843235	-8.600120130960883	2.105628332925
O	-5.138145725843235	-6.160858920960883	-0.5771877259749999
O	-1.7224394518432353	-6.125662570960883	-2.216836067075
O	-1.6828453688432352	-9.839384910960883	-2.700614607075
O	-5.188106205843235	-9.609587510960884	-4.1823482870749995
O	-4.230447875843235	-6.810069740960883	-6.569057037075
O	-1.1479727138432352	-8.693382120960884	-7.8720186470749995
O	-5.329770835843235	-8.225202950960883	-11.129582307075
O	-2.023821735843235	-6.590287410960883	-12.127775107075
O	7.416268664156766	-2.6099201409608828	-11.332048707075
O	4.627980854156765	-4.211341610960883	-9.331468927075
O	5.013811864156765	-2.0187300009608826	-6.225168147075
O	5.075610154156765	1.3057063510391171	-8.176088307075
O	2.245169224156765	0.00563742603911721	-10.372631417075
O	0.10990975715676476	-0.8620161809608827	-7.343391277075
O	0.9345301341567648	2.3999888390391173	-5.590342947075
O	-0.048903731843235154	4.455345449039117	-8.593602197074999
O	-3.363753815843235	2.5663608290391173	-8.673282247075
O	-4.500799455843235	2.937722559039117	-5.077110057075
O	-3.2579530158432353	6.558932959039117	-4.985343467075
O	-5.398320225843235	7.549205579039117	-7.905760707075
O	-8.341753715843236	5.557753689039117	-6.553767477075
O	-8.007937745843236	7.650072949039117	-3.354824487075
O	-8.330901745843235	11.099062489039117	-4.953831147075
O	-6.574802385843235	5.853874679039117	0.9545012529250002
O	-9.159579595843235	3.4724579490391174	-0.5121205690749999
O	-8.054279345843236	-0.15589404496088277	-0.7577940840749998
O	-9.216298535843235	-2.4459408209608826	-3.594628067075
O	-11.143382615843235	-4.420250270960883	-0.9513648520749999
O	-11.791407815843234	-0.5380325509608826	3.012247592925
O	-10.846551465843236	3.1109606790391173	3.660964542925
O	-7.617253545843235	3.5737330790391173	5.637012052925
O	-1.553934927843235	4.405121279039117	9.553746892925
O	0.3467802741567648	1.4149137870391173	13.301493092925
O	3.8123096141567645	2.9557031290391174	13.054013792925
O	3.8181368841567647	3.610229329039117	9.295968342925
O	2.681108994156765	7.240774909039117	9.414421092925
O	5.697840334156765	8.748613149039118	7.655326352925
O	5.441534674156765	6.648688559039117	4.480525842925
O	1.6542618741567647	6.9108831090391165	4.507864482925
O	1.959225254156765	10.762837789039116	4.613693952925
O	4.408633004156765	10.762011889039117	1.7097395029250002
O	1.814216974156765	8.854314899039117	-0.3339606630749999
O	-0.8714666508032352	11.387055989039117	0.5408119729250002
O	1.2962527241567647	14.477873389039116	0.038408667925000084
O	-2.733346495843235	11.452481489039117	-3.825978637075
O	7.885484814156765	5.800859259039117	-2.290577767075
O	7.867594154156764	2.405414269039117	-3.983892887075
O	11.338553384156764	1.6152976860391173	-2.661637337075
O	10.346428384156765	2.7236081890391173	0.8504362229250001
O	7.189003044156765	0.6440244543791173	0.7922038829250001
O	9.229791584156764	-2.3545944609608824	-0.26279202207499985
O	11.678066384156764	-1.8427277609608828	2.637517122925
O	8.744097494156765	-1.8302807709608828	5.023624152925
O	7.325624764156766	-5.061862840960883	3.458891612925
O	10.664529984156765	-6.805031880960883	3.897085632925
O	7.173429974156765	-7.030633020960883	8.151303172925
O	8.323442964156765	-10.309723110960883	6.641727432925
O	1.8952294441567648	-12.307672210960883	3.903143302925
O	0.0253801211567648	-14.273162610960883	1.2212369029250003
O	3.081109874156765	-11.026973610960884	-2.316287567075
