20

O	61.22926424254276	45.480550870489495	33.81111499226531
O	59.67014419406936	47.89039521926754	33.113757154535634
O	59.96570071787861	44.8472247983842	33.35906852251301
O	58.536902712721954	47.48899928325296	32.285039944179964
O	61.4716018830039	44.47130832319298	28.934320103416745
O	59.14932939237875	46.52577561066806	27.73070538713912
O	60.38762379316388	44.258446578666096	29.795874297514384
O	58.16893687157482	46.220608993887424	28.712282741022513
O	60.95917562297571	45.667267642007666	31.17697199058916
O	59.55505096493047	47.09302151807547	30.095423037242355
O	59.083842768366615	44.704566400721504	32.07592610099434
O	57.64182901744067	47.00175159168067	31.194934696228476
O	62.30923919053674	45.50473902863973	29.344219087822346
O	60.46113225158598	46.857071955478	28.119731995883317
O	60.02460363270644	44.73674032995035	30.978415073578514
O	58.26845088011133	46.6969366442402	29.896651390296665
O	61.69106663690779	46.31983702952951	30.238254620487865
O	60.76209180638125	47.09011279055185	29.457873461352513
O	63.44222723118587	46.09433146270309	28.920690435164985
O	61.6291395427165	46.5817730233675	27.394222164319846
