21

O	62.43197199841554	46.30996552604268	35.592858378731464
O	63.20501855628537	47.31900868252964	35.182311908287346
O	62.98328728922285	47.89290051719535	33.84170445581839
O	62.73678959742585	46.8316775360075	32.79748294455032
O	63.88931491593362	45.9991356460032	32.989628925282176
O	63.621892823836134	44.71368730240642	32.51300714569405
O	63.0702493218508	44.88397484870444	31.23828833993351
O	61.81580524880593	45.34255869029468	31.467744693461384
O	61.06673114404282	45.9624763915179	30.464327172629755
O	59.73277589554728	45.612260488342606	30.633128003832105
O	58.879718765049354	46.28622164845344	29.87646585303257
O	57.376765423282755	46.178638763489474	29.864456930601666
O	56.34191908102319	45.25768000771113	29.885666512104393
O	54.98117310061808	45.31254186805994	30.361578333101487
O	54.45592686098505	44.28265466254164	30.908910769937187
O	53.805646199669916	45.84858136207674	29.784654682564188
O	59.45913961625496	46.54189454640787	28.698486581583595
O	60.764979472902326	46.50122581124751	28.304170999453472
O	61.65599532089475	46.215368861685846	29.246986996178002
O	62.96035941211771	46.621632551630334	29.344069673723723
O	61.713908723522216	46.58059033500157	31.977654907832527
