22

O	64.57927052170737	44.9032066561523	33.68068270195101
O	54.23615474332013	46.068132186689446	29.769885036829955
O	64.47508840213146	44.72233079351582	35.134744513851054
O	54.50791350533304	44.36962311687491	30.597123104302064
O	64.2092693184637	46.015275933887885	35.682542194303096
O	64.56752161104576	47.17284382668787	34.751719124638115
O	63.62658871110892	46.85231193132999	33.76242823596604
O	63.39742418175511	45.647453934068075	33.39740430365674
O	62.554272932357165	45.29256029847038	32.28440084333339
O	63.11560173597869	45.3661633942845	31.13570404142918
O	62.4450364710411	46.50861427216829	30.43993057295249
O	61.507818145566674	46.82244405913016	31.348637145324677
O	60.29419193453999	45.962996669976604	31.239852940907465
O	59.13041807015802	45.822268531277324	30.770634749373095
O	57.83197042792036	45.6310150105952	30.085634674396545
O	56.593178335593876	45.369689645827854	29.935880321671608
O	55.269604318596414	45.477920587654374	30.07224288706047
O	64.45894992353033	43.60504187440294	32.99366428671063
O	65.74613319995517	45.59116533926725	33.274658908252256
O	62.56906917575552	47.738044754565436	32.98128669237374
O	63.478780381779295	47.32382822746339	29.858864765799566
O	58.0185773992508	46.73318878469846	29.13282221153814
