23

O	62.63898564668361	44.36809046795932	30.02125600022321
O	64.15793465708661	46.97770757161392	30.96711226272967
O	63.80750590378558	45.89238773360163	30.021804640960156
O	62.39370584504673	46.50202726464138	34.035669069575604
O	54.217261272654206	45.30077887879729	28.907746492927675
O	62.12405050162183	45.4111177635353	34.8869326718124
O	54.2411323372212	45.417560356896786	30.896731950262804
O	63.055169198127274	44.42285607050052	34.69455078355932
O	63.94868704779701	44.423672442762495	33.601097002435324
O	63.69157717460675	45.10703311370506	32.48812742278704
O	63.29541724084109	46.39224145400113	33.02167895501469
O	62.76107787258945	46.78750921736063	31.664229251787976
O	62.150460038585905	47.7423493159166	31.318427869226458
O	61.82770427683454	47.87349048995996	29.857453600925105
O	61.326974196929434	46.748118321891546	30.065606211478126
O	60.124265414556234	46.147866194863035	30.569261577349632
O	58.77387518173276	46.44553162607142	30.064426003390665
O	57.610513458928985	45.738534245597144	29.52709361455836
O	56.38964231747531	45.3593911916921	29.7637924449888
O	55.05041686635862	45.73227100564589	29.7709227163485
O	63.42873893001405	44.91380554456515	31.06610004567512
O	63.13721533133058	47.72764654826235	29.123821478583
O	57.42299144050286	46.33655515993209	28.117409359592607
