28

O	65.21500144400602	43.54251318904244	28.95567432785169
O	63.81994670609486	43.47122948766143	28.490444137607646
O	63.38605567317027	43.29085933590178	27.264074654140654
O	64.14445925871972	44.38897617264232	26.93291979399937
O	64.02075055601345	45.09512089952494	28.263914532581527
O	63.93099591226553	44.44633114073109	29.31620598127235
O	63.14654535196592	44.80859607091362	30.44157858263874
O	62.09374583623257	45.31316399125367	29.619845253935136
O	61.76983870749147	44.91899929697237	28.323821754040118
O	61.675747145935325	46.16909093214664	27.56361687989805
O	62.28270725950513	47.12782492103549	28.254911949196227
O	61.65781369207372	46.15412334251152	27.59407496514784
O	61.77294795210297	44.90509936580442	28.356608707230034
O	62.54469863322289	48.03613653413878	29.31664048544173
O	63.43269966955491	49.080010723868185	28.88445590073907
O	63.03678710270897	47.80435397469191	30.670873296268542
O	64.88434258570625	46.20954527242547	28.720322011629015
O	65.24232603508004	46.98963385422815	27.846466609199943
O	64.79108666703856	46.63727899478472	26.594602153352465
O	64.32492880183531	45.51615437502198	26.269065629966875
O	62.64384056241961	42.083519915684896	27.19910384263532
O	61.548120543671956	41.14494740789905	27.175525350910593
O	61.266210022316976	39.719652273056155	26.785532859252893
O	61.531939001744526	38.44174635001018	27.243310570601093
O	61.0733426413817	37.47960827367717	26.535139510135966
O	59.874505511607246	37.9473307313547	26.584963864313107
O	60.06785923654276	39.176024342702675	26.2968669757426
O	64.44025656470683	47.771295003599995	26.040515029492216
