91

O	4.294079688362319	0.5350256097391306	1.4598708584782603
O	-5.087682341637681	-2.171311669260869	-4.15701251152174
O	5.046274738362319	1.6778170317391305	1.87039888847826
O	-3.3939055916376812	-2.025895669260869	-5.26574215152174
O	4.206072558362319	2.8219333607391306	1.3923236284782603
O	3.096649898362319	2.7312970607391307	2.44971968847826
O	2.630080488362319	1.4252146367391305	2.2401554684782603
O	3.008564268362319	0.1881085497391306	2.0696384384782602
O	2.1196576283623187	-0.8184043492608695	1.3926005084782602
O	1.2080799383623186	-1.5370630992608694	1.9409908484782603
O	-0.13714704863768112	-1.1668455192608695	1.6614531884782602
O	-0.4735846666376812	-0.4440735892608694	0.4145652044782603
O	-0.3005948396376812	-0.9172699892608693	-0.7686580245217398
O	-1.0642999706376812	-2.0334133192608697	-1.2296172255217397
O	-2.2936097616376814	-2.1433113592608697	-2.06100557152174
O	-2.989824631637681	-2.5986852392608695	-3.0477979715217396
O	-3.888653421637681	-1.9758731892608694	-3.93291874152174
O	3.9221476283623193	0.8385508444391305	-0.009813892521739753
O	4.956746358362319	-0.7620654192608693	1.2621051384782602
O	1.0277982083623187	1.1813112947391304	2.3695111584782604
O	-1.1045509406376812	-2.4107170292608693	1.3181879784782602
O	-3.3079928616376812	-2.2259541392608693	-0.9418514015217397
O	11.250304628362318	-0.3677709492608694	-6.6649252815217395
O	7.81003792836232	1.1120558007391306	-5.770871111521739
O	7.74366531836232	-1.1693381592608694	-2.76915775152174
O	7.96249496836232	-4.31847891926087	-4.906594431521739
O	5.053583858362319	-3.14050378926087	-7.11009646152174
O	3.026168328362319	-2.29692140926087	-4.110653891521739
O	3.6411205083623193	-5.67489178926087	-2.4603750615217397
O	2.886876348362319	-7.394576329260869	-5.782167481521739
O	-0.44947826863768114	-5.551765699260869	-5.97098069152174
O	-1.2359119296376813	-6.335916489260869	-2.28721337152174
O	-0.8981978046376812	-10.022619679260869	-2.8467103515217396
O	-3.181207781637681	-9.69421247926087	-5.8898454215217395
O	-5.807100351637681	-7.675489269260869	-4.002381841521739
O	-5.913875581637681	-10.199433479260868	-1.1107868605217397
O	-10.08486212163768	-10.003598679260868	-4.421583601521739
O	-10.587954961637681	-9.11486747926087	-0.7511401435217397
O	-8.517879071637681	-6.463404709260869	8.977708988478259
O	-6.938398581637681	-7.1437173692608695	5.591231248478261
O	-4.3706958816376815	-4.3609451592608695	5.8339239984782605
O	-6.824263751637681	-1.6194159492608693	6.81954329847826
O	-9.314725131637681	-2.9974619092608696	4.293382068478261
O	-6.836635981637681	-2.8074837592608697	1.5096642784782603
O	-5.574889381637681	0.6451514847391305	2.54525233847826
O	-9.05647744163768	2.0259648007391307	2.56527170847826
O	-9.520187641637682	0.6562079347391305	-0.9811424055217397
O	-6.462668961637681	2.0696903707391305	-2.68769170152174
O	-6.830340741637681	5.35474176073913	-0.8313637045217397
O	-10.341762581637681	5.89748648073913	-2.12679533152174
O	-9.326239751637681	4.717554790739131	-5.597786421521739
O	-6.666582851637681	7.47708498073913	-5.51716866152174
O	-8.990542321637681	10.429336610739131	-4.86323336152174
O	0.03712918736231885	9.847756100739131	-5.495348541521739
O	-1.8749846216376813	6.60305261073913	-5.33063581152174
O	-3.367176561637681	4.324145030739131	-7.971634671521739
O	-2.556462781637681	0.6449088997391306	-7.534238211521739
O	-5.072409791637681	-2.0844479992608695	-8.54096911152174
O	-2.614838641637681	-3.0842410792608694	-11.24194541152174
O	0.1644806753623188	1.6811132607391306	-11.93292181152174
O	0.2582992593623188	5.2168308607391305	-10.48604861152174
O	2.782941808362319	5.6737238507391305	-7.66531976152174
O	7.766828568362319	6.62017323073913	-2.4624769515217397
O	12.402384528362319	4.42581227073913	-1.9508002115217398
O	12.706968528362319	5.40456164073913	1.7074478484782603
O	9.028015628362319	5.13929798073913	2.6078321584782604
O	8.078530838362319	8.794244040739132	2.1513218684782602
O	6.797199138362319	9.37699075073913	5.68983100847826
O	4.191782958362319	6.61214226073913	5.691490558478261
O	3.233500238362319	7.3686825407391305	2.0855398284782605
O	2.590759328362319	11.05021712073913	3.0854280684782602
O	0.40913800836231873	9.99884837073913	6.023471698478261
O	-1.758339201637681	8.032230550739131	3.57327791847826
O	-2.091149771637681	11.03686642073913	1.2811687884782603
O	-2.696073621637681	13.559881620739132	4.05624794847826
O	-6.684084781637681	10.270871350739132	0.3691483204782603
O	-1.541175790637681	3.7769679007391304	9.24603258847826
O	-2.452827761637681	0.09159336273913055	8.91904324847826
O	-0.1859407086376812	-0.8081027792608695	11.82235608847826
O	2.690578418362319	1.2673928707391307	10.400618688478259
O	2.319494798362319	-0.3193882292608694	7.008332998478259
O	2.414577908362319	-3.73887009926087	8.58269677847826
O	5.660500778362319	-2.8542545792608696	10.41372508847826
O	7.130327008362319	-1.8602541392608696	7.042363468478261
O	5.996582698362319	-5.120330159260869	5.418299738478261
O	7.632695778362319	-7.1372138692608695	8.27060461847826
O	10.898989728362318	-5.8358159092608695	4.07762962847826
O	10.41101852836232	-9.500005179260869	4.855274818478261
O	6.697752068362319	-11.26382407926087	-1.1302452005217396
O	4.132557958362319	-13.549932279260869	-2.77615067152174
O	0.8190566583623188	-11.694086079260869	1.4642386284782603
