28

O	59.66290386750029	46.620762109985634	30.93543606877152
O	60.61941162861248	45.00649389409653	30.894997898034415
O	59.344234419500005	45.37299429591222	30.67735578061925
O	54.34671368844414	46.00821589359688	29.91268858847689
O	60.92088942568858	45.384614362808236	29.53812744042223
O	60.42737491050366	46.66030547271749	29.744296087644194
O	57.79812790184879	45.118252481552986	30.429214583370083
O	56.65330611284455	45.31230056029143	29.960636486397277
O	55.29552299549778	45.316333011243	30.394343892705077
O	54.42330687838916	44.330532884635836	30.867412927259068
O	61.62640105341073	47.423364234173214	29.984394032902287
O	62.66519366659736	47.43086100462261	29.0262809444967
O	63.2203793462034	46.1111426868302	28.645265801756544
O	61.89173665104417	45.55598571222014	28.38778241664343
O	62.26538585287453	46.66940489732566	31.05805109355357
O	61.79153282020822	46.74192053916999	32.36423306859928
O	62.711391579085955	46.28698950879925	33.26600557213358
O	63.10746230484246	46.899427841953944	34.55969766787714
O	64.31263537116834	46.54749373678153	35.39108467502396
O	63.581589245131816	48.18216247655566	34.10006416524639
O	62.13484958364285	46.56358414442276	35.528694693992016
O	63.74782548316495	45.552232033337866	32.826144824953545
O	64.48167393209317	45.005789820695824	33.95047721830812
O	65.39589136488392	44.089329328801114	33.5340214243868
O	65.34772069919923	46.11091766762181	34.50218542654705
O	63.51820273580297	44.30315257767599	34.845372429019285
O	63.61375752468893	44.85479815502162	31.68959129583331
O	62.69739323555355	45.41710998798881	30.808418296490814
