88

O	-0.23766749244117658	-1.1039039279705882	1.819033465852941
O	1.3796641915588235	1.215863936029412	0.9661393658529411
O	-1.3106759164411765	-0.09482601797058798	1.6388796458529413
O	0.4922949915588233	2.207031992029412	0.36423492585294115
O	-2.0210080724411768	-1.315970037970588	-2.8323266341470585
O	-1.0705693351411767	1.639152864029412	-4.026641744147059
O	-2.398201448441177	-0.430350117970588	-1.8144873711470588
O	-1.4782440464411766	2.3879437120294122	-2.890462244147059
O	-0.6468655744411766	-0.5974115079705882	-0.7543966821470589
O	0.03165652155882337	1.276151678029412	-1.8514185881470588
O	-1.9639696924411765	0.7792017750294119	0.519164505852941
O	-0.44914533044117666	2.964583502029412	-0.5113805801470589
O	-0.7182758504411766	-1.788185527970588	-2.699911574147059
O	-0.2751123094411766	0.4885335580294119	-3.8677422641470587
O	-1.8445639254411765	-0.01502665897058808	-0.6831416441470589
O	-0.7801564684411766	2.367721802029412	-1.817249789147059
O	0.013561581558823477	-0.9998327179705881	-1.870010730147059
O	0.28934268155882337	0.18669538602941194	-2.6325129141470587
O	0.10746079155882349	-2.625851157970588	-3.353465664147059
O	-0.29966165744117657	-0.648742827970588	-4.687739094147059
O	-8.580501608441176	-7.009759327970588	6.907689675852941
O	-5.9976874784411764	-4.167752427970588	6.413418585852941
O	-5.140259738441177	-5.770620837970588	3.1567544158529417
O	-8.639714258441177	-5.355572217970588	1.7195001858529413
O	-8.755241008441176	-1.6686950979705881	2.729980965852941
O	-5.481712178441176	-1.0900761279705882	1.177647635852941
O	-6.449270588441177	-2.731316337970588	-2.092978044147059
O	-9.583455738441177	-0.726834477970588	-2.0986625841470588
O	-7.610339088441177	2.535818542029412	-1.6573868321470588
O	-5.358935458441176	1.6253904980294118	-4.3845283941470585
O	-7.859171568441177	1.0801109790294119	-6.993916884147058
O	-9.192990718441177	4.497659722029412	-5.965833584147059
O	-5.821129588441177	6.221071282029412	-6.229484014147059
O	-5.068165288441177	4.779950902029412	-9.68211228414706
O	-6.166614608441177	9.95730607202941	-9.26930567414706
O	-2.7359463384411766	8.917063432029412	-10.51064264414706
O	5.611568851558824	3.130045492029412	-12.417409174147059
O	2.1925662115588236	3.168932812029412	-10.84921688414706
O	3.1991717015588232	1.074123040029412	-7.748920244147059
O	6.276618341558823	3.1332665020294117	-6.888535314147059
O	4.306698421558823	6.333717172029412	-7.6445114141470585
O	1.5461264915588235	5.377202542029412	-5.244915844147059
O	4.1069066115588235	4.219070112029412	-2.626884874147059
O	5.880725291558823	7.453352732029412	-2.6750258341470587
O	2.5507565315588234	9.261187442029414	-2.175423094147059
O	1.1837350515588234	7.511819172029412	0.8623492558529411
O	4.650092211558824	7.383963792029412	2.4768965258529407
O	4.972417971558824	11.119372082029411	2.3651534658529414
O	2.1898047215588234	9.439179182029413	6.544409585852941
O	5.109684581558823	11.52632158202941	7.822639475852941
O	1.6375341715588232	3.634855192029412	10.70567322585294
O	0.4222943215588233	4.984111782029412	7.423285945852942
O	-2.4729927684411765	7.102596462029412	6.240424995852941
O	-4.518041008441177	5.777667942029412	3.3151824458529413
O	-6.094332018441176	8.105762742029412	0.7819029658529411
O	-9.464535908441176	7.031887022029412	2.158470095852941
O	-8.042396898441176	5.3755630620294115	7.262074455852942
O	-4.925145678441177	5.091770262029412	9.44055532585294
O	-3.2741212784411764	1.665326683029412	9.376730925852941
O	-0.2576572314411766	-4.957057187970588	9.248909825852941
O	-2.507901778441177	-9.586111317970587	8.83783631585294
O	0.7523313315588234	-11.321039317970587	7.912972895852941
O	2.3424892815588234	-8.44661075797059	5.976902505852942
O	4.423794931558823	-6.9881661179705885	8.803687945852941
O	7.828862641558823	-7.323779727970588	7.122485955852942
O	6.985503221558824	-5.289249687970588	4.012225175852941
O	5.008166041558823	-2.7754427179705883	6.127499625852941
O	8.082667821558823	-2.230213617970588	8.31324322585294
O	10.306865491558824	-1.6707768679705879	5.275443665852942
O	7.941452851558823	1.102206112029412	4.163473555852941
O	8.049575211558823	2.7290671820294117	7.5753464958529415
O	11.813872091558823	2.3452145820294117	8.05853006585294
O	8.294296241558824	7.148393292029412	5.9002098758529415
O	9.679291991558824	-2.0637511179705883	-1.9481005141470589
O	7.530479121558823	-1.5261451479705879	-5.038401104147058
O	8.542734331558824	-4.914690137970588	-6.445102804147059
O	7.844377631558823	-6.634572407970588	-3.127496944147059
O	4.433399431558823	-5.001820357970588	-2.8224728041470586
O	3.6317223815588235	-6.191992987970588	-6.367015334147059
O	4.559367621558823	-9.76450391797059	-5.423612014147059
O	2.1560852515588236	-9.548539017970587	-2.4725668141470587
O	-0.6491880964411766	-8.285499807970588	-4.714321074147059
O	-0.14274071344117656	-11.190970917970589	-7.173415914147059
O	-3.5832002584411766	-12.134065217970587	-2.947385624147059
O	-4.996317578441177	-12.40516781797059	-6.467794144147058
O	-9.432607868441176	-6.635560417970588	-6.189298354147058
O	-11.255742308441176	-3.8896809579705884	-8.11221228414706
O	-5.985979758441177	-2.544312997970588	-9.80461794414706
