32

O	38.56278523557373	-26.651168344651296	102.37963175498035
O	39.66887924973528	-26.43346247911505	101.88241178771034
O	39.748219134914635	-26.834569997802717	100.5361707165929
O	39.070705226563284	-27.27564629238367	99.28183238536741
O	38.84059406323366	-27.0823460363371	97.91216498469163
O	37.581363440634675	-27.54419554953703	97.3487795318475
O	36.576027054768716	-28.021163511025478	98.30747268675572
O	35.9700269213029	-27.837414532496986	99.47210806897698
O	36.62914282603395	-27.9440689485334	100.83355560808246
O	36.0788951632076	-29.422882530373716	99.65544442857559
O	37.36293640074657	-29.071457477235008	98.43869903374961
O	38.704184642813544	-28.449133779215696	98.5488914712304
O	35.5737828096842	-27.900302715635114	102.01820275064941
O	35.4725627274158	-27.076638723476457	103.15262772974617
O	34.163616226086916	-26.650074761651148	103.65938752195748
O	33.092441445182246	-27.482234999917118	103.60937961300067
O	32.930962917840176	-27.827420637310546	102.29543471457126
O	34.1915143772351	-28.101824877866104	101.686031238166
O	40.53040487270972	-25.532133088570397	102.57388370113821
O	41.858074518319334	-25.156407462991915	102.30480943873121
O	42.201458588268125	-23.852329384366563	101.99095095771474
O	40.954735014047465	-23.240146049822854	102.28432872383
O	39.85850708664624	-23.365750064402153	101.23836914140723
O	38.639823644162504	-24.131053551432732	100.745305738595
O	37.626597512006384	-24.0888671847052	101.87340634238927
O	37.80399811939844	-24.115605687478467	103.14054786325715
O	36.81755215443721	-25.134843009637287	101.81894517329505
O	36.78610111485797	-25.454648436360078	100.61650747963907
O	37.57082056675446	-24.742329460616034	99.72684512367907
O	38.275621446794595	-25.161857359186687	98.82899841081965
O	40.852307768601726	-23.548859984797417	103.64454877134072
O	40.392203921713026	-24.876848207262643	103.80170377936233
