19

O	49.437123409545116	-22.816369866464274	102.26838203579169
O	49.74814161958115	-22.0048964315422	98.71096461928367
O	42.3647989649667	-19.80905447748761	104.47299163106334
O	46.997527574947924	-19.48896101870273	100.85820071208913
O	49.79834191904929	-22.76345033741435	101.04683935894086
O	47.43241716420107	-18.327379608255242	103.75955362063735
O	44.856592403352366	-19.994122467455448	103.43855426614468
O	48.51154191571412	-21.89180320111	102.73632246259803
O	45.63274019267153	-17.01043693326575	104.61111481546214
O	42.936229425871375	-18.684985075879283	103.83595119315596
O	47.59649530504749	-20.09118257733233	99.84404608587826
O	48.34297970636383	-21.006831387440613	100.47185945237037
O	46.94725564069385	-20.12578405703249	102.01001985564884
O	49.216406635388076	-22.042604767349186	99.99058508220166
O	47.99393847470248	-20.97520057943423	101.82231418078554
O	44.34094446030635	-18.93699078112324	104.29417120546997
O	46.177761032482806	-19.673830469220245	103.10370977849131
O	46.306207403287694	-18.240672537239952	103.09147498165026
O	45.07379120168468	-17.767360061371633	103.79719582809203
