106

O	0.26829906875806475	-4.460025195870967	4.9023716572580645
O	-0.10281162824193524	-4.114618895870968	2.4723797272580645
O	0.8830718487580648	-0.3492386488709678	7.138782027258064
O	-2.323580371241935	-5.534880455870967	0.9135071766580645
O	-0.6267438482419352	4.734979664129032	7.532079697258064
O	-1.3334231322419352	-5.562127565870968	-0.060161708741935604
O	-0.7332918742419352	-3.5767887058709675	5.212853407258065
O	0.6482790387580647	-5.223959995870969	2.2604739972580647
O	-0.40658179624193524	4.082019174129032	6.415464257258065
O	1.0977600587580647	-1.5169881958709677	8.122991697258065
O	-2.351505031241935	-6.555313465870968	1.9359794172580644
O	-2.408321931241935	-5.440016655870968	-1.0016721927419356
O	0.10747231875806473	-5.7966628458709675	4.273060707258065
O	0.6320586787580648	-1.3366256238709677	9.377026157258065
O	-1.2863928532419353	-7.341190265870967	1.6437071772580645
O	1.328591778758065	-3.5261557758709676	2.5683284572580645
O	0.6920192887580648	-2.755566175870968	7.416294897258064
O	-2.5322651112419354	-5.5383193958709676	2.8829180172580644
O	-1.6760008062419351	-5.709639335870968	-2.1952778427419357
O	-0.24954122124193523	2.7364708141290324	6.3707367072580645
O	-0.2566728462419352	-5.164638255870967	3.5703833472580646
O	1.609226158758065	-3.7795747158709676	7.465669177258064
O	-2.873078201241935	-5.291434195870968	4.1486957172580645
O	-0.16145793724193525	1.945571714129032	7.412544297258065
O	0.5410403387580648	-2.1451323658709676	6.081892357258065
O	-2.3007141012419354	-4.119841365870968	2.4406087572580644
O	-0.7885336202419353	-6.671930055870968	-2.2490958527419354
O	0.13440465875806484	-0.8472180838709678	6.118121907258065
O	-1.9324701762419352	-4.216429255870968	1.2033329622580644
O	-0.5364558732419352	2.546468524129032	8.575706707258064
O	1.441753478758065	-2.370420715870968	4.999312657258065
O	-1.7776786282419352	-3.185847095870968	3.4607264772580644
O	-0.05011809524193522	-7.178837935870968	-1.1204054027419355
O	1.5512424987580649	-3.602660805870968	4.576261327258065
O	-0.5885022672419352	-2.7600069958709676	3.1760138772580646
O	-0.5525077552419353	3.898259634129032	8.559192987258065
O	-0.15395583824193526	-6.2480474058709685	-0.24070156274193555
O	-0.6630466222419352	4.605056074129033	9.722767097258064
O	-2.4942177212419354	-5.917622375870968	-3.4058340927419355
O	-0.6963200032419352	1.550184724129032	9.439207907258066
O	-3.312826821241935	-7.023482405870968	-3.1985311927419353
O	-1.8234258282419353	-5.897746145870968	-4.446766672741935
O	-0.6246413002419353	0.3847974861290322	8.743257957258065
O	0.15541492875806473	0.6966301941290323	7.722572447258065
O	-9.317569841241935	-13.098118125870968	2.2769419972580645
O	-9.775918621241937	-9.813215975870968	4.178736077258065
O	-5.049497801241935	-15.079534725870968	3.1545190972580643
O	-4.001752511241936	-11.447292725870968	3.7851941572580645
O	-2.233271541241935	-8.863983475870969	5.912354637258065
O	-5.336339301241935	-6.800890175870968	6.594215207258064
O	-7.495635311241935	-9.961927045870969	7.478951647258064
O	-0.3583314002419352	-14.491578625870968	4.878972567258065
O	3.4604539287580645	-9.593536955870968	-1.7211892627419356
O	6.695117578758065	-8.277452665870968	-3.2630034727419357
O	3.0842042387580646	-6.207202195870968	-7.520778652741936
O	6.377155438758065	-5.400353265870967	-8.834061172741936
O	0.9559890987580647	-5.998272855870967	-11.979021722741937
O	0.8668497987580647	-2.4465290258709675	-10.452012922741936
O	4.148325228758065	5.165063184129032	-2.9408569427419358
O	2.5045799387580647	5.304988614129032	0.49599509425806443
O	3.700688128758065	2.5052379541290324	2.719979097258064
O	6.766155088758065	0.3578497901290323	2.559851197258064
O	5.415915818758065	-3.038887315870968	3.5243241472580644
O	5.920718888758065	-5.950589825870967	1.4176029992580643
O	3.829552298758065	-4.3151009358709675	-1.3355927527419356
O	5.130738118758065	-0.9238448098709677	-1.1954752527419354
O	8.544528178758064	-2.520022055870968	-1.4847112027419356
O	7.547355498758065	-4.193704805870968	-4.780537142741935
O	5.699737188758065	-1.1376294318709679	-6.186039242741936
O	8.544887818758063	1.1829132441290322	-5.404437272741935
O	8.012151138758064	6.860558834129032	-0.12195703874193553
O	5.7531686787580645	7.764946684129033	2.8697915872580646
O	5.500488588758065	5.760687904129032	6.1778558872580644
O	4.474635238758065	5.745671044129033	9.643513967258066
O	6.404656038758064	3.126154194129032	10.832248977258065
O	10.248838198758063	0.4618962861290322	7.214242007258065
O	13.526146998758064	2.6929646341290323	2.2133634772580644
O	11.167377698758065	9.260029884129032	2.6132366572580645
O	8.771991948758064	12.110866374129031	3.3148764272580644
O	5.122648628758065	12.965505174129031	3.9279852972580644
O	2.110202738758065	12.864826174129032	1.6797031342580644
O	0.2163119887580648	7.9905807841290315	-6.476120612741935
O	-0.12452595124193522	4.416246594129031	-5.155089712741936
O	-1.3580437622419352	3.531566194129032	-1.6516114027419357
O	-0.14796703324193528	0.16196723912903221	0.09474557225806446
O	-0.7053936522419353	0.6188295141290323	3.5765282072580646
O	-3.688416091241935	-0.8832914578709677	4.571101787258065
O	-4.4926111512419356	2.1514817741290324	6.503138777258065
O	-7.259997741241935	4.692955104129032	6.210887857258064
O	-7.063083551241935	8.389764624129032	5.283811547258065
O	-3.891068261241935	8.170422674129032	3.0730679072580642
O	-4.872399661241936	10.545989174129032	0.23792547425806443
O	-4.680678371241935	4.5999134041290315	-7.295928822741936
O	-4.8696570212419354	2.252963154129032	-4.374144412741936
O	-3.771004851241935	-1.199082724870968	-4.463292992741936
O	-4.7012084712419355	-1.6444670058709678	-0.4751509927419355
O	-7.442476391241935	-4.489066675870967	0.5270631632580645
O	-10.245293041241936	-2.2440700158709674	1.0563870212580644
O	-10.250835981241936	3.062423074129032	2.599641647258064
O	-6.943223441241935	4.6518807241290325	1.6830314192580644
O	-8.202916751241936	7.385012154129033	-0.7843126227419355
O	-11.007552701241936	9.908284574129032	-0.0463411967419356
O	-7.511173221241935	-2.150037535870968	-5.838874632741936
O	-5.922487861241935	-1.1490541738709679	-9.256596622741935
O	-3.9008839512419353	-4.196452955870967	-10.541558522741937
O	-3.8803549212419353	-9.145251165870969	-11.303089122741934
