94

O	-4.700489478322582	-2.654212045080645	-5.862600270091935
O	-5.757400898322581	-0.939239565080645	-4.647189880091936
O	1.4358968416774187	-2.5279017450806447	4.412438269908064
O	2.287642151677418	-1.5433546650806447	4.828688879908064
O	0.40850727167741874	-2.249428975080645	3.492809819908065
O	0.6554508516774187	-0.07377888508064501	1.0361657099080643
O	-2.630454685322581	-2.4829493850806448	-1.3198225240919355
O	0.9367628216774186	-1.202834945080645	0.2645689799080644
O	-2.3526762223225814	-2.463643585080645	0.07724899990806433
O	1.0500869716774186	-0.06805884508064508	3.8445794499080646
O	-1.7392380558225815	-0.41972423508064505	0.8365430799080644
O	-0.42736280832258133	-1.929864165080645	-1.6559640650919356
O	-1.2172860853225815	-0.2012469650806451	3.364769449908064
O	2.3285232216774183	-0.4214364750806451	4.064143769908064
O	0.1288122016774187	-0.950664715080645	3.353954279908064
O	-0.6834854083225814	0.35408800291935505	1.0598601199080644
O	-1.6964260018225814	-1.8037295350806448	-2.0365800970919357
O	-2.032572269322581	-1.044543865080645	-3.2057711200919354
O	1.0439944816774187	-1.0610921250806449	-3.5730506800919355
O	-3.3107198683225816	-1.016863255080645	-3.5233419400919357
O	-0.9064164433225814	0.790466512919355	2.3738098899080646
O	-1.2662599903225815	-1.737961895080645	0.5757369699080643
O	-0.18440326832258136	-1.693945895080645	-0.3030636620919356
O	-4.544554868322582	-1.2302367550806448	-5.468581540091936
O	-3.291502758322581	-1.0327672650806448	-4.8610263800919356
O	3.1645931116774184	0.826818362919355	4.993105529908064
O	0.6430917016774187	-0.678870035080645	-5.779237950091936
O	-0.19447087832258148	-0.536692715080645	-6.765272530091936
O	-1.4827317713225814	-0.5787720550806451	-6.464969160091936
O	-2.0622721883225816	-0.961409015080645	-5.344478340091936
O	-1.2088132673225815	-1.147397165080645	-4.307959590091936
O	0.10259003167741865	-0.8081646050806449	-4.539502300091936
O	2.9735419916774184	13.565399764919354	-6.516560020091935
O	-0.3476377883225814	11.684308164919354	-6.727872430091935
O	-4.088642968322581	8.922505864919355	-10.792404480091935
O	-6.2378339483225815	7.225088234919355	-8.138131680091936
O	-6.4800093283225815	3.444022664919355	-8.281031420091935
O	-8.755229998322582	2.641617864919355	-5.300001120091936
O	-12.372199018322581	2.797949674919355	0.09821413990806449
O	-11.086144958322581	4.8382137149193545	5.289619499908065
O	-8.93925113832258	6.277465914919355	2.5166244999080645
O	-7.649671648322582	5.953527594919355	-1.0596100133919355
O	-4.884701818322581	4.502268344919355	-3.2174698100919357
O	-2.9762565083225816	6.468075694919355	-5.783486610091936
O	-0.3288763983225813	5.731778474919355	-8.357977910091936
O	2.280008831677419	8.465958564919355	-8.061246390091936
O	8.37667098167742	10.057054804919355	-5.155275840091935
O	5.155228011677418	4.505055834919355	-6.084110200091935
O	1.8620675016774186	3.561592094919355	-4.5518074400919355
O	0.37686685167741873	6.103991554919355	-2.2035489100919357
O	-2.3147711193225815	5.3842602249193545	0.3132560699080644
O	-4.313865258322582	7.999966824919355	1.9906123499080643
O	-6.237686018322582	8.094984104919355	5.271176079908065
O	-4.508088258322581	7.8203980249193545	13.234967419908065
O	-4.174681758322581	3.588393104919355	10.412708619908065
O	-0.47487067832258134	3.903387084919355	11.305231019908065
O	-0.17601920832258133	0.495788122919355	13.093407819908064
O	-0.30503677832258136	-0.934794785080645	9.533920919908065
O	3.136370101677419	0.724284991919355	8.987698719908066
O	4.490112771677419	-0.053998045080645096	12.395368319908064
O	4.629017001677418	-3.6772427550806452	11.233539319908065
O	5.829339181677418	-3.1056678450806445	7.690752139908065
O	8.88734338167742	-1.564152545080645	9.193622519908065
O	6.064830011677419	-8.889228305080646	0.5819626899080643
O	5.151188431677419	-5.461802015080646	-0.6918574270919355
O	7.760355411677419	-3.0774871350806445	0.5811039599080645
O	7.252949441677418	0.06655398191935502	2.5524909999080645
O	9.13607808167742	2.971542024919355	1.1148312099080644
O	8.052748731677418	5.909770604919355	3.3168642199080645
O	0.2887282116774188	9.062813174919354	3.675101409908064
O	1.7305192816774186	5.5986786949193545	3.238368249908065
O	4.233887761677418	5.031324414919355	0.36081911990806437
O	4.997517341677418	1.4782684139193552	-0.8730636130919356
O	6.326922911677419	-0.125973335080645	-4.009874130091935
O	4.1838272416774185	0.03681484891935505	-7.040014960091936
O	-1.0143053703225813	-5.107695365080645	-12.392520780091935
O	-3.1441489683225816	-4.489121435080645	-9.340893560091935
O	-4.692353388322581	-7.3141775350806455	-7.2130004200919355
O	-1.3136709663225814	-12.536739435080646	8.433724439908065
O	-6.2253802483225815	-12.344557435080645	5.844574489908064
O	-4.606921498322581	-9.152248135080645	-0.8216101420919356
O	-1.9730085913225814	-10.305505435080645	-3.2574001900919356
O	-0.48460544832258146	-7.775980825080646	-5.732199510091936
O	0.8519212216774188	-8.512441965080646	-9.193795470091935
O	3.737726791677418	-6.722480015080645	-10.840161880091935
O	5.509557751677418	-11.346618635080645	-9.975156180091934
O	3.225793791677418	-11.801684735080645	-6.944454360091935
O	3.5934599816774186	-10.211858335080645	-3.5015619200919357
O	1.7622813916774185	-10.514254635080645	-0.1436993690919356
O	0.04932794167741861	-7.330107595080646	1.2810880799080646
O	-3.0003741483225816	-6.254421355080646	3.3152270899080647
O	-5.019775308322582	-3.745970245080645	5.417207629908065
O	-3.4059559983225816	-4.1043363950806455	9.002803019908065
O	-0.37421380832258144	-8.452557195080646	10.924912119908065
