79

O	1.8109274530847461	0.022171540201695206	0.9432261396237286
O	0.777880643084746	0.29284886647169517	1.8595011506237287
O	-1.259529559915254	0.6810218212016952	3.6091174306237286
O	-0.4852463769152542	-0.25745164079830485	1.6392544706237286
O	1.0186980130847458	0.9741798322016952	3.007085560623729
O	-0.029128676915254115	1.1522276582016953	3.813847400623729
O	-1.5195709511852542	-0.07822528679830482	2.5589952806237286
O	-2.636701296915254	-0.6831672247983048	2.1595312906237285
O	-1.0336225039152542	-1.135975397798305	0.7278803566237286
O	-3.889734886915254	-1.059434297798305	2.675193730623729
O	-2.353379345915254	-1.0960730277983048	0.9159872116237286
O	-0.46598012691525414	-1.4229519577983047	-0.5741209123762714
O	-4.539233226915254	-0.5214019627983049	3.8470198206237285
O	-4.415939416915254	-2.4194280877983045	2.336338340623729
O	0.27747350308474594	-1.6916153177983049	-3.1449408793762714
O	-0.16743388691525407	-0.3057205057983048	-1.2883297093762713
O	-1.212000328915254	-2.2611953577983046	-1.4320931193762714
O	-0.7108188819152541	-2.5615600877983047	-2.6971181693762714
O	0.24544996308474598	-0.4337648947983048	-2.5862502593762713
O	-1.3240836469152542	-3.294697197798305	-3.6972255293762712
O	-3.850977156915254	11.792390912201695	-2.355190449376271
O	-4.577111346915254	12.669229212201696	1.3027312306237286
O	-6.961522086915254	10.041570522201695	2.711541700623729
O	-8.186016696915253	6.746268772201695	1.2073551706237287
O	-7.2893939069152545	3.5362867322016953	2.994884460623729
O	-8.809649646915254	0.8166765682016952	0.8418894996237286
O	-11.530446196915253	0.6656343982016952	-1.7879993693762715
O	-11.834460596915253	-2.5036939777983047	-3.8341928393762714
O	-10.698577946915254	-2.696896297798305	-9.430127369376272
O	-9.474580126915253	0.4789945992016952	-7.750984859376271
O	-8.526871536915255	2.241227612201695	-4.515987379376271
O	-5.604323626915254	2.760811892201695	-2.1497470793762714
O	-4.670225706915254	6.162866922201696	-0.7744845483762713
O	-2.1877040939152543	7.514115422201695	1.7332675106237285
O	-0.5118741169152541	10.481533012201695	0.12449371252372868
O	2.563130003084746	12.553543712201696	-0.5800001723762713
O	7.975554593084746	11.611670712201695	0.8472911156237286
O	4.857624793084746	9.960099252201696	2.281913020623729
O	3.627191203084746	7.222637502201695	-0.020025278476271315
O	0.9497069330847459	4.722667742201695	-0.8014569823762714
O	-1.0069630799152542	5.322009312201695	-3.9909282393762715
O	-3.031735506915254	2.7205141722016952	-5.831701729376271
O	-5.664029166915254	3.656413622201695	-8.314346989376272
O	-7.252260686915254	1.7000331822016952	-11.169692479376272
O	-10.911108506915255	2.2878865022016948	-12.051496879376272
O	1.6649198530847458	-5.809807007798304	-11.015833179376271
O	4.345369153084746	-3.156856937798305	-11.449804379376271
O	7.886646033084745	-5.014845997798305	-8.791772359376273
O	6.987186623084745	-3.4837852377983047	-0.3234865453762713
O	9.002648003084747	-1.2802061477983049	-2.6714099193762713
O	7.684083153084745	0.3073197493016952	-5.862973069376271
O	8.616949103084746	4.010615062201695	-5.997211689376271
O	0.954779083084746	2.929875092201695	-8.653270499376271
O	3.235645083084746	4.510266902201695	-6.036954649376271
O	4.954819363084746	2.370661692201695	-3.3731521593762714
O	6.4137948230847455	2.779626052201695	0.060080836023728684
O	3.918128323084746	3.5039502922016954	2.838919950623729
O	1.788609803084746	2.882624792201695	8.453987770623728
O	0.0670039230847459	-0.04353881179830482	10.221856520623728
O	-1.925668094915254	-1.6216102177983047	7.409900390623729
O	-2.218217442915254	-5.356359177798304	6.806938110623729
O	-0.7477637449152541	-7.879989657798305	9.275185600623729
O	1.1952180930847458	-15.577988987798305	0.7405254106237287
O	-1.174611645915254	-14.863093387798305	3.6643064706237287
O	-3.8420729969152543	-10.190714387798305	4.407394700623729
O	-0.9415287839152541	-9.760115687798304	1.9967746706237286
O	1.6679017330847459	-8.760362347798305	4.545554490623729
O	2.073931603084746	-5.102878397798305	5.550073410623729
O	3.2391027930847462	-3.724229947798305	8.890936500623727
O	5.252222413084746	-0.5599701877983048	9.343614210623729
O	6.900875133084745	1.1851492702016952	12.307820020623728
O	6.844119713084745	-4.0916351377983045	13.986838620623729
O	8.479003413084747	-4.231958867798305	10.547422420623729
O	6.738816703084747	-6.680303867798305	8.180835990623729
O	6.905271433084747	-6.7637116677983045	4.396547670623729
O	5.567366353084746	-9.080765977798304	1.7021636406237286
O	3.096116873084746	-7.6505869277983045	-0.8533389273762714
O	0.08807164308474591	-8.628928777798304	-3.016908889376271
O	-2.112113300915254	-7.630337167798305	-5.968565919376271
