32

O	3.491869713146564	7.658641110527626	7.74530050426457
O	5.019599540561609	5.092671642493688	8.319693636689806
O	8.81913924770753	16.53085534185273	1.2440419209562874
O	4.62038218445589	12.583179076697107	3.8102324597563912
O	5.193870305538923	11.133053734538002	3.558758131082353
O	5.334557012034044	12.668292195280438	5.185597896043939
O	3.283120115533143	11.648814120986774	5.164277353631291
O	6.405565082788314	7.141126508493798	7.43292263660951
O	2.350811545971097	8.358514525811595	6.695532668805724
O	9.6403132234565	14.364961305044	2.277555441894946
O	7.689311915223592	14.320265740891227	1.7131504079789828
O	9.36652763194784	13.150827878670107	3.0452879768891457
O	7.501431017054626	13.365897198877413	2.798820509362122
O	2.855420931971514	9.560526215097676	6.180934627003682
O	6.05923847473042	5.717144543469867	7.543092331807918
O	3.9117347669369815	10.68346246947937	4.101691840838276
O	4.603535343635228	11.618902005284687	5.87300974222574
O	8.285879335972801	6.0139461818347115	7.613314925839154
O	3.52189817231564	9.654501282267551	4.830605044456723
O	8.52991785921889	8.195758957075105	6.465437007246053
O	7.287519176177007	5.132601464177183	7.968276370611649
O	1.6368518225500575	10.223750226472045	5.753218026831929
O	4.936643136931286	10.423674526744914	6.281491097814862
O	7.776300864693793	7.137345674887921	6.961188595062555
O	8.800682257860334	15.154067531819644	1.4491676664353719
O	8.242839928066335	12.350226417048047	3.448243284965818
O	6.524228151862275	8.917397203803862	6.0256366458359345
O	6.242804762379745	10.298607256266639	5.992950585547451
O	6.682622565232602	10.89872607865266	4.955387653897633
O	7.975759911143917	11.532823033880629	4.530982433477536
O	8.606346751531948	10.228822026545282	4.897848569521695
O	7.98368034689493	9.201520746203412	5.708186063916802
