24

O	-0.10078017527274863	10.662278399345144	5.785212542679065
O	2.0501883947446684	10.970089723661605	4.354670366206594
O	2.3460818691984078	7.85872551191353	8.72813486209175
O	1.05478823614978	8.313327085512082	8.328653487787408
O	2.7078852709961487	8.015993968033765	6.488969156145198
O	5.006147505032126	10.781885151419921	4.152438624677176
O	6.394257711084586	10.218699184460899	4.146878698784908
O	5.214066846464845	11.358882741451112	5.454322593595308
O	3.2757873606517904	7.497055209711106	7.743793582635463
O	1.2285395937532764	9.351338373805694	7.363683508677304
O	2.191058628550173	9.354262964993062	6.408346121891395
O	4.688078542729195	7.901995948806023	7.693210550367333
O	6.250697192500443	10.294201447483482	5.636307343502732
O	5.573178709750546	5.438997460324556	8.772667831908954
O	4.7897918502213175	9.108722991264099	7.014876146097942
O	5.7720519084743085	9.118569308170752	6.192111958136848
O	0.09564841242751143	10.018317979455299	6.985203359799485
O	2.188497674089759	10.342606106778582	5.504638484687462
O	7.756710548488	6.121868607934482	7.864620465006891
O	8.442757349727739	6.873074296029632	7.01275987450518
O	7.875057228653645	7.962841377255462	6.515416478076739
O	6.577121721651913	8.161041305329636	6.645275720876322
O	5.809191859927293	7.263806233143903	7.330205095425338
O	6.424940936948248	6.290196870572567	8.055408578166443
