93

O	0.7324052339661291	0.8316954814387096	2.4910722815483872
O	1.8718513639661292	0.48352565443870965	1.7804833615483873
O	-1.690010806033871	-2.64583164556129	-4.038913708451613
O	-5.241267166033871	1.1321869394387096	-0.4363734124516128
O	4.194947153966129	0.1753334414387096	1.7639107915483871
O	3.068182003966129	0.5562434588387096	2.355942401548387
O	5.0398002639661295	-2.5045900155612904	-3.4707843584516125
O	2.940403453966129	-0.4789097455612903	-0.04117011645161284
O	4.131348223966129	-0.31460927956129037	0.5329686215483873
O	1.7259950939661288	-0.05599454256129044	0.5264822215483873
O	-1.586862746033871	-2.74304931556129	-1.0275381934516128
O	0.724021843966129	-0.2384999335612904	-0.4443676214516128
O	0.33111049496612893	-2.64191822556129	-5.029694798451613
O	-0.689906868033871	0.1839221824387096	-0.3086042814516128
O	2.688314503966129	-1.0932793255612905	-1.2224317944516128
O	-1.542722716033871	0.45448677143870964	-1.3870550554516128
O	-2.880983666033871	0.011533542438709632	-1.5542650544516128
O	-3.684001296033871	0.3460753764387096	-0.5481123774516128
O	-3.029792236033871	0.13364360743870962	0.5870405415483873
O	-1.614113306033871	-0.04572668156129034	0.7224731115483871
O	1.431403373966129	-0.7908291055612904	-1.4595963854516127
O	0.7387446439661289	-0.9451956355612905	-2.6932757284516127
O	-0.19271348203387104	-1.7774814855612904	-2.755421518451613
O	-0.587417603033871	-2.4747108055612905	-1.5853650054516129
O	-0.601691540033871	-2.0857448155612905	-4.151407198451613
O	0.5031180999661289	-3.97980557556129	-5.485478238451613
O	1.791628423966129	-3.9100976255612903	-6.324840298451613
O	1.059443933966129	-4.908957515561291	-4.4071746884516125
O	3.417304523966129	-2.15817573556129	-1.846488639451613
O	4.741975203966129	-1.7277455355612903	-2.333956088451613
O	3.9030809339661294	-3.2431244955612906	-3.846326308451613
O	5.996269683966129	11.53242343443871	-3.721561748451613
O	9.650633053966128	10.39865900443871	-3.3927759584516126
O	10.045930453966129	7.0991329444387095	-5.276161548451613
O	7.420763563966129	4.85297625443871	-6.908493278451613
O	7.072014563966129	1.3714343184387097	-5.573280108451613
O	4.311336393966129	-0.07968585356129043	-7.706995948451613
O	2.719776283966129	0.6490083192387096	-11.071360628451613
O	-0.49082898093387106	-1.0958755555612905	-12.059043328451613
O	-3.011793486033871	-0.1264776135612904	-14.686686928451612
O	-5.560123616033871	1.5133148384387096	-12.394259928451612
O	-2.869497606033871	3.62393081443871	-10.733324238451614
O	0.47187304196612895	3.6955265344387094	-8.902793368451613
O	2.046270323966129	3.5022183244387097	-5.469145588451613
O	4.647092493966129	5.83272335443871	-4.113119868451613
O	6.778026453966129	6.02908067443871	-1.0112305124516128
O	6.606518853966129	9.648546654438709	0.1734888715483871
O	6.802991593966129	8.87387618443871	5.952100961548387
O	3.798335523966129	7.523928324438709	4.122664421548387
O	2.634686713966129	5.51336222443871	1.3207611715483873
O	0.6708043339661289	7.19620757443871	-1.4885637584516127
O	-1.636816516033871	5.63694668443871	-4.0202894884516125
O	-2.673005366033871	7.14924772443871	-7.210798038451613
O	-5.656005436033871	6.58201769443871	-9.510530488451613
O	-5.205768146033871	7.06616545443871	-13.264569728451614
O	-11.565783046033872	1.2092353404387097	-1.0302801984516128
O	-11.20554014603387	4.11413794443871	1.418224131548387
O	-14.891424546033871	4.27227030443871	2.405715291548387
O	-14.29871054603387	1.0035834364387095	4.259799351548387
O	-10.809866946033871	1.7620699244387097	5.579120491548387
O	-2.829440696033871	-1.1614499255612905	7.268211111548387
O	-4.121185786033871	2.2036655244387093	8.464721471548387
O	-5.639352346033871	4.88158951443871	6.222289821548387
O	-4.105930906033871	8.26582244443871	7.083258351548387
O	-4.957526726033871	7.58273401443871	-0.9737757184516128
O	-2.540288196033871	7.9268138044387095	1.9433514915483874
O	-1.8175505660338709	5.09752411443871	4.349453741548387
O	0.8706333539661291	4.00588825443871	6.748286221548387
O	4.117359063966129	2.8815692144387093	5.096038751548387
O	8.933063273966129	-0.6977063055612904	4.567787601548387
O	9.31121180396613	-4.309185405561291	3.413392151548387
O	6.602704823966129	-4.54658115556129	0.7537451415483871
O	4.327896983966129	-7.558050745561291	0.37177385154838727
O	4.784236103966129	-10.69225676556129	2.453406181548387
O	7.90726449396613	-10.58512896556129	-2.185839228451613
O	-6.660589216033871	-12.97485326556129	2.019404141548387
O	-3.279973396033871	-14.19015066556129	0.6632500115483873
O	0.458841851966129	-13.42654336556129	1.0702309715483873
O	0.3310227589661289	-10.932854265561291	-1.766903621451613
O	-2.1639298660338713	-8.93657731556129	0.28554383154838714
O	-0.16782552703387105	-8.86017923556129	3.523187471548387
O	2.413029083966129	-6.09708810556129	4.107107711548387
O	5.628783953966129	-6.36868137556129	6.143718961548387
O	7.145412693966129	-3.57825643556129	8.181387971548387
O	8.82536229396613	-8.63273888556129	11.010367171548387
O	5.519499743966129	-6.84299636556129	11.638933571548387
O	2.718811453966129	-8.035635305561291	9.332437671548387
O	-0.506524977033871	-6.25590282556129	8.453875661548388
O	-3.608844666033871	-7.17735458556129	6.467731921548387
O	-4.525007186033871	-5.26006738556129	3.399369171548387
O	-6.017567296033871	-5.45879283556129	-0.24079060745161274
O	-7.600603886033871	-3.67555856556129	-3.3651729384516127
O	-11.151151446033872	-2.9410020955612906	-2.186390028451613
