93

O	0.46191016952631575	4.415216219105264	0.3873451696999992
O	3.970141018526316	5.420505799105264	1.7491198196999993
O	-1.1649814034736843	-2.4649308308947364	-0.7366038765000009
O	1.2136031885263157	-2.1844784508947366	-0.49707215730000087
O	-4.428238001473685	1.0797196211052635	-2.004277580300001
O	-2.590737001473684	-0.7486298408947363	-2.286313030300001
O	3.282505418526316	0.5796144891052635	0.2168408096999992
O	0.9006482985263156	1.8391003631052636	-0.6268471633000009
O	4.182268668526316	4.8548755191052635	0.38885071969999907
O	4.9855319085263154	3.5941458891052633	0.546724519699999
O	8.169237278526316	8.532971179105264	2.072199919699999
O	4.790331818526315	7.526172689105264	1.4443328696999993
O	6.2648229985263155	5.554882579105263	1.3975742696999993
O	6.029590468526315	8.323292629105264	1.329530909699999
O	7.484319758526316	6.402461629105263	1.4965738696999993
O	-3.8948233814736843	-1.1255110708947362	-2.3937967703000007
O	-4.671401621473684	-0.018278360894736334	-2.740476700300001
O	-3.203457831473684	1.3080944881052636	-1.4777190133000009
O	-2.0134629414736844	-3.2709533008947367	-0.7486757057000009
O	2.288143928526316	-1.4663216708947364	-0.17492567730000086
O	-1.3162339014736844	0.3291476191052636	-0.6254155633000009
O	1.7125255585263157	3.9420376291052635	-0.04107037130000091
O	4.288107418526315	2.6551558961052635	-0.19464085230000094
O	-0.01337268747368428	-1.6354067108947365	-0.7215099243000009
O	-2.1998473714736844	0.4106393791052636	-1.709333522300001
O	1.9315193385263159	2.5862814221052637	-0.05704186930000088
O	3.151782388526316	1.9663564771052635	0.15906470269999906
O	-0.0863474074736843	-0.27666663089473653	-0.8018969543000009
O	2.164316818526316	-0.1493245908947365	-0.0873496293000009
O	1.0044813985263157	0.4740572091052635	-0.4936844783000009
O	5.136095018526316	6.233014649105263	1.937689189699999
O	7.049477728526315	7.647714479105263	2.074812979699999
O	-5.938738331473685	-0.3322630708947365	-3.834079130300001
O	-2.6181030114736843	2.8884208691052633	-0.9391598563000009
O	-5.845916561473684	-2.437237120894736	-2.714774430300001
O	-4.510209291473685	-2.3221209708947366	-2.441855070300001
O	9.705080118526315	1.1815004611052635	-10.3848318103
O	8.846066528526315	4.244805889105264	-8.290962380300002
O	5.438550758526316	5.784284559105263	-7.507427380300001
O	4.440186218526315	5.904701979105264	-3.8782635503000007
O	1.0525037785263156	7.543595549105264	-3.850861470300001
O	-0.8129338194736844	9.757151389105264	-6.2100791203000005
O	-4.4979609914736844	10.379702819105264	-5.595260090300001
O	-6.981954311473684	11.739331909105264	-8.0841276403
O	-5.183092951473685	6.863711049105264	-9.7274124803
O	-1.7480105814736844	6.0717699491052635	-8.361117830300001
O	0.2194906515263157	3.5590375591052634	-6.353776270300001
O	3.566449898526316	2.1887632821052634	-7.502422260300001
O	6.253467068526316	-0.003680390894736485	-5.9825178803000005
O	7.213299658526315	-2.496627960894737	-8.665150330300001
O	8.208132218526316	-7.171114610894737	-5.413953930300001
O	4.687438458526316	-5.852172630894737	-5.493047990300001
O	2.424338468526316	-2.893748530894736	-5.026679630300001
O	0.6298464235263157	-1.6955442508947365	-8.143071370300001
O	-2.4244487314736842	0.48302261910526356	-8.214828250300002
O	-3.458239151473684	2.4131764861052636	-11.257105920300003
O	-6.752375201473685	3.9220971091052634	-12.393320520300001
O	-6.777780401473684	7.238602699105263	-14.319158620300001
O	-10.719434571473684	-6.744069760894737	-6.2719092003000005
O	-10.181648751473684	-9.255148190894737	-2.131006040300001
O	-3.1750704114736843	-7.131786750894737	2.462465079699999
O	-3.225719271473684	-9.887842890894737	-0.16417618230000086
O	-4.333576321473685	-9.425059090894736	-3.790850540300001
O	-1.3418407314736844	-6.021678490894736	-7.967914810300001
O	-1.2270406294736842	-6.535830570894737	-4.128726200300001
O	1.5211032485263156	-7.611917980894736	-1.7269812253000008
O	4.098837888526315	-4.913140580894737	-0.9296673672000009
O	7.5715386785263155	-1.6367826708947364	2.790393939699999
O	6.778981358526315	0.8620829851052636	5.5606607296999995
O	3.6789887885263157	2.5371433441052638	4.190432689699999
O	0.6347894125263156	3.4603096991052635	6.243922969699999
O	0.5304122315263158	2.9203350691052634	10.029721179699997
O	-0.4106384464736843	6.594189139105264	10.308244879699998
O	2.7194287585263157	7.815371049105263	8.5610748097
O	4.783778038526315	5.235956159105264	10.4265603797
O	-8.381489171473685	3.7175704091052637	10.645676579699998
O	-4.589207361473685	4.060638499105264	10.9186347797
O	-4.472355471473684	5.537168939105264	7.386408069699999
O	-5.842363891473685	2.2625959481052638	6.1169863396999995
O	-3.446920131473684	-0.04106705089473639	7.897743559699999
O	-0.1356133284736843	-0.9615056108947364	6.266468999699999
O	3.1714323285263157	-1.7695484408947366	7.9224515397
O	5.729900808526315	-4.202800760894737	6.619369589699999
O	9.008357988526315	-5.627617430894736	7.901367869699999
O	9.399686768526315	-6.450540560894737	11.5893432797
O	6.439182348526315	-4.289573840894736	12.6255389797
O	3.9002345585263156	-6.439293450894738	10.7630216797
O	0.5156408455263157	-4.714295160894736	10.352092779699998
O	-2.210038311473684	-5.512345870894736	7.854317259699999
O	-5.7243641814736845	-4.235097230894736	7.2030428096999985
O	-6.436357251473685	-2.5472094608947367	3.8568434696999994
O	-8.613154911473684	0.19774645910526356	2.2571003196999992
O	-10.063515011473685	1.5906772181052635	-0.9832762693000009
