37

O	7.233404832944954	6.369539584409159	7.274041888902046
O	5.834462377252421	6.269346025600545	7.727780774425405
O	5.819118810420806	5.836002000854551	9.091091302795624
O	4.700635209468569	5.50103812801352	9.945722075915608
O	3.343902245463071	5.76916943735416	9.148412254686821
O	3.6445639460485895	6.678991485401641	10.153744062572095
O	4.65117218685131	8.632956292415324	7.81629969726305
O	3.030409473095953	8.700448514138158	5.635186252748371
O	1.9336524937557114	8.777352844966329	6.618968507767893
O	6.823782771789794	12.781486554477182	4.514051314838107
O	6.669898706390917	13.727821557986076	3.387604323143158
O	8.435467280950299	12.896448363105193	2.81788321720036
O	8.188655571707748	11.529383710659488	3.46917223276861
O	7.278375342891808	11.447603549417956	4.597973596243225
O	8.311231580273958	7.122078605673915	6.66938461533801
O	6.908572644775051	5.199472161618606	9.08671931254563
O	7.784205642625098	5.929854454994095	8.340823178688073
O	4.001355722757181	7.9455355322630306	6.785692037197004
O	7.389336637914662	13.568741464170799	2.168169001674803
O	3.690844910493016	9.320255349657533	8.286399857295564
O	6.689501003532021	12.54709175961944	1.4099838436974137
O	5.6683187706495985	12.042270077333754	2.323045428267818
O	5.42510827777171	10.956866786210792	2.9765400803623137
O	4.314726495779819	10.75839586118347	3.7108256513289093
O	3.261711236239734	11.619321329267265	3.6343929105971586
O	3.79868541317921	12.853584320614	3.5654780892180726
O	4.81077962704869	13.00026773034482	2.6798220755460473
O	0.9641734342687744	9.429222138576753	6.6926867533828
O	4.099660484077199	11.670155799308832	6.310429153387372
O	1.8920434622870093	11.74009979549459	5.390228743273922
O	3.144192773923086	11.92594060598827	5.94181150572015
O	6.043338778300678	9.415754508837903	6.092612896733976
O	6.914952657995716	10.287301250438258	5.367170561238426
O	7.889356325413768	9.457163649484631	5.817757405610561
O	8.01727319216537	8.457534247381437	6.586037180441204
O	7.080139830935954	8.815326481740032	7.4733656585385315
O	5.83481241913462	9.197192488241262	7.220244472213204
