95

O	-3.0495919229838706	3.072971175861289	-5.89042743732258
O	-0.22456242798387033	-2.5908689041387114	-2.6144644973225803
O	1.3749977570161298	1.239665750861289	2.5183495026774194
O	-2.9909860729838704	0.953693914861289	-7.08237711732258
O	-0.34241127798387033	-2.5679791141387107	-4.88617139732258
O	2.8936506370161297	2.3435158048612887	6.83907227267742
O	-1.3909792879838703	-0.978267804138711	-5.99056339732258
O	4.20381919701613	2.619347545861289	6.39587529267742
O	-2.0108757529838703	1.403494990861289	-3.6018001373225808
O	2.0678879170161295	1.738503983861289	5.82295683267742
O	-0.7447913549838703	1.994553769861289	2.5307918526774196
O	-2.15101917298387	1.4883613338612889	-0.7585028063225805
O	0.8619825170161296	2.779301395861289	4.08979599267742
O	-0.5528798499838703	-0.156037864138711	-0.5619834963225805
O	-2.2543548429838705	0.9787230488612889	-4.79175601732258
O	-1.7590057829838703	2.069767852861289	0.4104858726774195
O	-0.4237895189838703	0.20634063586128892	0.7903805326774194
O	3.3722024070161294	2.462687282861289	4.23951302267742
O	-1.0039549869838704	-2.324292574138711	-5.9474478473225805
O	-1.5461660829838704	0.366324055861289	-1.3427501933225805
O	-1.0543144729838705	1.307811908861289	1.3026946326774194
O	4.48337831701613	2.5972158398612892	5.02652624267742
O	2.1034768370161294	2.602839083861289	4.7218415926774195
O	-1.4687093879838704	-0.6897737441387108	-3.6109326173225806
O	-1.6679791629838703	0.35483428586128896	-2.8123049273225806
O	-0.7561683939838704	-1.9598712341387112	-3.6807400373225807
O	-1.8845881329838705	-0.28539231413871113	-4.88192803732258
O	-3.1085447329838702	1.597294823161289	-5.75953628732258
O	0.5986181370161298	2.131181527861289	2.8835841126774193
O	5.925820527016129	2.542998659861289	4.84525017267742
O	6.4779138170161294	3.626014065861289	5.53070660267742
O	6.493587097016129	2.579433434861289	3.6494781826774196
O	6.44406244701613	1.414412927861289	5.47651593267742
O	-12.29789544298387	-7.94987578413871	-4.47641443732258
O	-11.56678024298387	-4.567729434138711	-9.61833186732258
O	-7.902000492983871	0.687334348861289	-8.32242121732258
O	-8.25766742298387	3.728695355861289	-6.0974036273225805
O	-11.48964764298387	7.507458205861289	3.7093187126774194
O	-11.78188354298387	4.299490265861289	1.7264324426774196
O	-10.90810094298387	2.374225910861289	-1.4374390373225805
O	-8.24300985298387	0.13870098586128887	-2.9152093873225806
O	-9.02250994298387	-3.0745180041387115	-4.75578883732258
O	-7.041713432983871	-5.650970994138712	-6.6886624673225805
O	-8.21218984298387	-9.06372695413871	-5.48759876732258
O	-3.3799503529838706	-9.17161865413871	-3.3115034773225807
O	-4.17563923298387	-5.560670024138711	-2.7233655673225807
O	-7.14166523298387	-4.75876617413871	-0.4910149523225805
O	-7.625268222983871	-1.384053414138711	1.2352856126774194
O	-11.12335524298387	-0.5814815841387109	2.5521231826774193
O	-12.23530874298387	1.899732194861289	5.21267827267742
O	-7.2357431129838705	3.527522915861289	10.13115910267742
O	-5.75625909298387	0.46161587586128894	11.87174900267742
O	-2.6475035429838703	2.260054208861289	13.20858210267742
O	-1.4615381019838702	2.079601583861289	9.62157619267742
O	-1.2037877559838703	-1.6948786541387109	10.08970960267742
O	0.06330087701612963	-1.562345054138711	13.69364410267742
O	3.3709366270161296	-0.26594726413871106	12.23918730267742
O	3.4666520270161296	-2.4380252041387114	9.098707332677419
O	3.6299533170161293	-5.349293934138711	11.51252250267742
O	8.79431103701613	-1.993891634138711	1.6156074326774195
O	5.256116487016129	-3.011153944138711	0.6195973956774194
O	4.460297947016129	-6.026855254138711	2.8024384826774194
O	1.3376545070161296	-6.3541385841387115	4.9680031626774195
O	-0.2132307089838703	-9.80606695413871	4.40581597267742
O	-6.088948352983871	-4.178245034138712	4.98167243267742
O	-4.3554657529838705	-6.778165504138711	2.8007005426774194
O	-0.8856524779838704	-6.035557854138711	1.3713237126774194
O	1.2299221070161295	-7.42825682413871	-1.4803567873225805
O	0.10356942001612968	-6.456718284138711	-4.98155045732258
O	1.0345574070161296	-4.42330681413871	-10.65850929732258
O	2.1461190870161295	-1.0048921841387108	-11.97768779732258
O	0.5912772570161297	1.4041004938612889	-9.509397537322581
O	2.3476317570161296	4.480841325861289	-8.11378105732258
O	5.80164398701613	5.534190895861289	-9.32006413732258
O	13.90267865701613	3.326202185861289	-2.6997049573225804
O	8.30301087701613	8.227969975861289	7.09191824267742
O	5.772405097016129	11.54013168586129	3.4251202926774194
O	8.391423817016129	10.09478583586129	1.0839885526774193
O	3.0586347270161296	9.187038955861288	-5.12551416732258
O	3.9458199570161296	6.969534345861289	-2.1822303273225803
O	6.25124037701613	4.592414895861289	-4.003456887322581
O	4.81208903701613	1.535337542461289	-5.78703099732258
O	6.071975717016129	-0.2064993741387111	-8.91083308732258
O	5.841507567016129	-3.9108499341387106	-9.599918077322581
O	10.78128235701613	-2.101918074138711	-12.52762689732258
O	10.74339835701613	-3.113453174138711	-8.85214173732258
O	10.06428525701613	-0.1585710541387111	-6.52773404732258
O	8.83524828701613	-0.26672379413871106	-2.9422884673225806
O	8.229663677016129	2.309155199861289	-0.2651657313225805
O	4.60892931701613	2.7379318258612892	0.9833591826774195
O	2.1468879770161298	5.302611145861289	2.4684979026774196
O	-1.1919631529838703	5.9485406358612885	4.25561488267742
O	-0.1195511179838703	5.835897475861289	7.950590562677419
O	5.069017037016129	6.23018368586129	10.24971460267742
O	13.100787057016129	12.10786544586129	4.81350727267742
