94

O	-3.7367712032450005	5.698081904793335	2.296319004076667
O	-0.6818850732450003	2.9417215547933346	-5.241906535923333
O	-3.5312348532450004	4.3164201547933345	1.897331644076667
O	-3.1305997632450002	6.4998646847933355	1.2073299240766668
O	-1.1016943012450002	1.9966555817933345	-4.240035535923333
O	0.4091868467549997	3.8376992347933347	-5.198195325923334
O	-3.4312059532450006	4.293548264793334	0.39882656407666695
O	-1.7710985542450004	5.9458922647933345	1.331913884076667
O	0.07552259675499973	1.1041959147933347	-4.006970135923333
O	1.4007957867549996	3.0463540867933343	-4.532092815923333
O	0.6387700767549997	3.1774419397933347	1.3549388940766671
O	-0.5919247502450002	7.733698774793334	-2.6362961359233332
O	-2.5272099332450004	7.573847274793335	-1.511076612923333
O	-0.8500181792450003	5.238647014793335	-3.470008095923333
O	-0.34590799124500027	7.116060064793334	-1.232068944923333
O	-2.2241698052450003	6.220537384793335	-2.021345365923333
O	0.12931204675499974	5.456810634793335	-2.530884825923333
O	1.0813301767549997	3.4045054667933345	-1.513006924923333
O	-2.0395389392450003	4.777606654793335	0.24409480407666695
O	0.3271336467549997	4.293095404793334	0.368539194076667
O	-1.4461391302450002	3.7626529147933345	1.055901284076667
O	-1.7595942712450003	8.329723654793334	-2.2575108159233332
O	-1.6126463142450003	4.000742904793334	-2.507984915923333
O	0.8181615167549998	2.2111033437933347	-3.558749495923333
O	1.2980098867549998	2.2017324827933344	-2.2651377859233333
O	-0.8866618672450003	5.931644154793334	-1.643508684923333
O	0.13730389675499977	3.4108115557933347	-0.4612853599233331
O	1.5011600367549998	0.5552110847933345	-1.715036600923333
O	-1.9052561252450002	2.6456723767933346	-0.0857661969233331
O	-1.1802783414450002	3.358201863793335	-1.097508645923333
O	-0.7134486272450002	1.9690366907933345	-1.2684188479233331
O	0.24255349675499982	1.9055923377933346	-0.19284207392333308
O	0.07765482675499968	1.7856129127933347	1.193951394076667
O	-1.1862287725450003	2.4141519480433344	1.0242234340766667
O	-11.928084313245	-3.8743313352066653	-1.2928487199233332
O	-13.513170213245001	-1.593722935206665	1.341932584076667
O	-12.489747213245	1.9807135757933345	0.45293146407666696
O	-10.008373183245	3.2809336157933346	-2.177456265923333
O	-7.022290553245001	5.1974232647933345	-1.060837051923333
O	-4.943218043245	5.868092134793335	-4.127302405923333
O	-5.869004193245001	6.373915024793335	-7.761022595923333
O	-2.9656849832450005	6.649803494793334	-10.209032465923332
O	-3.0622757432450003	6.015429204793334	-13.937081545923332
O	-1.6807449732450004	2.4822487922933347	-13.970497445923332
O	-4.1718488832450005	1.3898827047933346	-11.270224845923332
O	-5.609338843245	2.0006738397933344	-7.782326015923333
O	-5.092885263245	1.1999114447933346	-4.121501315923333
O	-7.586190093245	0.012992004793334733	-1.7594114799233331
O	-7.868303993245	-0.6411189052066653	1.9523381440766672
O	-9.494478403245001	-3.9528614452066653	2.321895784076667
O	-9.802665123245001	-7.226951175206667	4.0557795740766664
O	-6.661506773245001	-9.511177225206666	8.120848974076667
O	-6.763544853245	-5.8750261252066664	7.048506494076666
O	-4.695636373245001	-5.377790735206666	3.9165491440766673
O	-3.6164875432450003	-3.0225201752066657	1.212918764076667
O	-4.688183713245	-3.8446562652066656	-2.271919525923333
O	-3.227869283245	-2.691278335206665	-5.4787058859233335
O	-5.061081953245	-2.836343185206666	-8.748263345923332
O	-3.7743125332450003	-2.722477645206665	-12.345907545923332
O	-5.890091793245	-1.0538126352066652	-15.026396745923332
O	6.996541716754999	-5.945761785206665	-8.666461035923334
O	5.807394836755	-9.016468625206667	-6.804120935923334
O	8.844058786755	-9.082471125206666	-3.001884585923333
O	6.403883926754999	-3.6901158252066657	3.4615381340766667
O	5.436837546754999	-7.310965725206666	3.184499914076667
O	3.725677806755	-8.985874525206667	0.23268613407666694
O	0.8353949667549998	-11.121894625206666	1.4503849940766669
O	-1.3332967935450002	-7.131614905206666	-5.335960995923333
O	-1.9239548982450003	-7.629981425206665	-1.613079978923333
O	0.5370053067549998	-6.2611126652066655	0.912690674076667
O	0.4790137867549997	-5.398911375206666	4.586838834076667
O	-1.5114054962450003	-2.3799231852066653	5.547979984076667
O	-2.4421071532450003	2.850104758793335	8.566930494076667
O	-0.7387670902450003	6.308091584793335	8.223074894076667
O	0.022402266754999678	6.521843574793335	4.418998634076667
O	3.3136432167549996	7.790722074793335	2.978814344076667
O	5.957564746755	9.335265804793334	5.192970544076666
O	14.629417286755	5.627288864793335	-1.746236439923333
O	12.679126586755	8.784211854793334	-0.7802057349233331
O	7.319931856755	9.261617134793335	-0.8339062409233331
O	8.337168236755	5.582184814793335	-0.8714447285233331
O	8.217075386754999	5.053454764793335	2.806650244076667
O	5.074616236754999	4.025184324793335	4.628812164076667
O	4.041084236754999	4.789540134793334	8.193420754076667
O	2.121190796755	2.4385898517933344	10.488486754076668
O	1.055787596755	2.4664031006933347	14.156250154076668
O	5.505199746754999	5.780723804793334	14.170702854076668
O	6.679604526754999	2.5464847267933344	12.497147254076667
O	8.316161286755	3.1756297637933346	9.124073154076667
O	8.752096386755	0.6958617647933345	6.289520704076667
O	10.553069486755	0.7805083147933345	2.978170734076667
O	8.560400186755	0.2283236747933346	-0.17609803292333304
O	8.386400756755	1.2402991347933345	-3.922010445923333
O	6.848800756754999	0.4448109847933346	-7.4221989159233335
