101

O	6.402228772234374	4.068208243725	3.301203138640627
O	6.3626652622343745	3.081565613724999	2.104624768640627
O	7.622466682234374	2.450163753724999	2.477402358640627
O	5.107864332234374	2.320643453724999	1.9552199886406267
O	4.431806982234375	1.410867662724999	1.158756568640627
O	3.055026162234374	1.642980274724999	0.965901528640627
O	3.0236309622343747	2.893819213724999	1.598979568640627
O	4.050818022234375	2.879351683724999	2.476901268640627
O	4.0303949222343745	3.591051523724999	3.6550728486406268
O	3.609582292234374	4.885622553724999	3.6536574886406266
O	2.491764062234375	4.945952723724999	2.852716498640627
O	2.2531971322343747	3.986829303724999	1.9170024186406267
O	1.2325994822343749	4.211507923724999	1.0813787386406268
O	2.1709031022343748	1.349833824724999	-0.17672253035937313
O	3.138348482234375	0.938576848924999	-1.136916698359373
O	3.0105647822343746	-0.1856394162750009	-1.953685091359373
O	1.6543733022343747	-0.4657506762750009	-2.270240051359373
O	0.5916787222343747	-0.07257224527500095	-1.601197726359373
O	1.016103872234375	0.537129565724999	-0.4993658533593731
O	0.3489841422343747	0.17388947972499902	0.5844138386406268
O	-0.5655928447656253	-0.8208644362750009	0.580443768640627
O	-1.3172688188656252	-1.029003056275001	-0.5425827233593731
O	-0.6133691107656253	-0.640536026275001	-1.6833242573593732
O	1.6108556722343745	-1.6570363662750012	-2.900282721359373
O	0.35657738223437474	-2.118587736275001	-3.1887618413593732
O	0.24872314223437475	-3.067204726275001	-2.449974141359373
O	-0.0036352877656253835	-2.341732146275001	-4.451882471359373
O	-1.3646842847656253	-2.682623096275001	-4.753917011359373
O	-1.8262170827656252	-3.673910976275001	-3.9945311513593733
O	-3.0525897177656254	-3.5142540062750007	-3.404135851359373
O	-3.4258234777656256	-2.1878695562750012	-3.1697309013593733
O	-3.2239990377656254	-1.4117934662750011	-4.253868911359373
O	-1.9837048217656252	-1.4364403462750013	-4.690847901359373
O	-3.810279707765625	-0.07961041627500098	-4.107587111359373
O	-2.9370974077656253	0.391797934724999	-3.284712661359373
O	-4.956416927765625	-0.20108832627500084	-3.472523781359373
O	-3.7605725577656255	0.43019666872499907	-5.301495031359373
O	-4.225989857765625	-0.022563963275000987	14.668788568640627
O	-0.7440721257656253	-0.8972240762750009	13.357425968640626
O	5.159635162234374	0.9451455723249991	13.650906668640626
O	6.321658732234375	-1.227618076275001	10.727234768640628
O	7.899908712234374	0.521740893724999	7.726414998640626
O	8.694519442234375	-2.373583596275001	5.391781828640627
O	9.199232372234375	-8.146750386275002	2.474124448640627
O	5.081496972234374	-11.832786166275001	0.9773413786406269
O	4.058019872234374	-9.483523166275	3.761698978640627
O	4.711572292234375	-6.239396206275001	5.626375538640627
O	3.868887042234374	-2.585718036275001	5.653742468640627
O	2.828154032234375	-0.609842126275001	8.682929398640628
O	2.142070832234375	3.020721343724999	9.559376368640628
O	-1.0996258937656254	3.030721243724999	11.489615268640627
O	-8.029564637765626	3.8160600037249988	10.933981068640627
O	-2.9886311177656255	5.277625533725	7.098547998640627
O	-0.7789106087656252	2.776670073724999	5.615805588640627
O	-1.4164717637656252	-0.915384226275001	6.184147188640627
O	-0.1128270177656252	-3.865005686275001	4.160660778640627
O	-0.14320131776562528	-7.329531786275001	5.4056634486406265
O	-0.03567978776562519	-10.645169766275002	3.5692070186406273
O	1.8126616922343748	-16.218791966275003	-0.6332902193593731
O	-4.9226824477656255	-14.821031666275001	-1.4260948963593731
O	-2.366822637765625	-10.723253266275002	-3.154300071359373
O	-5.9078555277656255	-9.353549366275	-3.4968447413593733
O	-5.683056807765626	-8.793147886275001	-7.302768271359373
O	-3.4822815277656254	-5.783525416275	-6.343862741359373
O	-6.743713067765626	-4.303343056275001	-4.7801750513593735
O	-9.047247467765626	-5.437477006275	-7.471090831359373
O	-7.454275547765626	-2.920937936275001	-9.808865691359372
O	-7.177923867765625	-0.014409722275000925	-7.3884779513593735
O	-10.785976067765624	-0.0397736032750009	-6.931151151359373
O	-1.9532316117656254	7.631566393725	-7.738136801359373
O	-1.8454487397656254	6.426730623725	-4.164339551359373
O	-5.491972177765626	6.0566276137249995	-3.015450581359373
O	-7.066687107765626	2.836092363724999	-1.5799558513593732
O	-8.988603797765625	3.417134373724999	1.542140028640627
O	-10.133797777765624	-0.08051410627500089	2.594629508640627
O	-9.310308637765624	-3.776121356275001	2.645699828640627
O	-4.988536147765625	-6.261657726275001	5.041963268640627
O	-4.735635257765625	-3.4938726762750014	2.5288427786406267
O	-5.334426157765625	0.1042524867249991	3.737415628640627
O	-4.067469077765625	3.023225593724999	1.4583228986406267
O	-3.426555307765625	6.835897933725	2.145439658640627
O	-0.06427901776562539	7.429093443725	4.070496828640627
O	8.482864932234376	10.402057283724998	3.228998838640627
O	8.700159292234375	6.853652353725	1.909743178640627
O	9.898242172234376	5.933573903725	-1.5875567623593732
O	1.8090432322343746	-0.13534645627500097	-15.205243231359374
O	6.937908942234375	-1.281377816275001	-13.417514731359374
O	7.5077294922343745	2.581590573724999	-6.798193821359373
O	6.906629142234375	6.295018443725	-6.391165011359373
O	5.934188822234375	7.609072423724999	-2.922021661359373
O	6.718180262234375	11.012330533724999	-1.479876000359373
O	4.5204386422343745	12.863114933724999	0.9294251186406268
O	4.296346332234375	15.558809433725	-3.335647141359373
O	4.826059732234374	12.447878733724998	-5.498192951359373
O	2.418683582234375	9.609533823724998	-6.3129140913593735
O	2.5008242622343744	6.448437763724999	-8.505958821359373
O	2.0695218422343746	2.963135943724999	-6.824223531359373
O	3.1984979722343745	-0.6494723062750009	-7.022788981359373
O	3.1212839122343743	-4.405140596275	-6.056010701359373
O	0.39059497223437467	-5.7548264462750005	-8.554697931359373
O	-1.4612547837656253	-3.305843996275001	-13.402077531359373
