84

O	1.319635154306897	0.4610063323103434	1.8077430426034486
O	2.1328977643068967	1.3517037603103434	1.0689257726034485
O	1.7617669743068967	1.9024464333103435	-0.1524365883965515
O	2.547736964306897	2.832465444310343	-0.8230786242065515
O	1.906213914306897	3.3140145643103436	-1.8957885573965514
O	2.399929854306897	4.149238244310343	-2.9359228873965515
O	1.404761914306897	5.033775834310344	-3.6187384273965515
O	3.5919393943068965	4.973454104310344	-2.6688516973965513
O	0.7574684143068967	2.6358695643103434	-1.9353468873965516
O	0.6180949143068967	1.8335809503103433	-0.8875008090965515
O	-0.5456936406931033	1.1791764923103434	-0.21676104839655153
O	-0.9936688866931033	0.16595982331034342	-1.2265074613965514
O	-1.6991456316931033	0.9128730664103434	-2.1768412273965514
O	-2.7514833456931034	0.30368161831034335	-2.7659180373965517
O	-3.4659102956931034	1.3797251733103435	-3.4420576973965513
O	-5.140745315693104	1.2750205403103434	-2.9201136273965513
O	-5.053864105693103	0.4804237923103434	-1.3246543933965516
O	-4.045456605693103	1.4206949263103434	-0.6709683373965515
O	-5.488335205693104	0.3387433553103434	-4.013978657396551
O	-5.507825365693103	2.6724431543103435	-2.9650830273965516
O	-3.3784080456931034	-0.8400524556896567	-2.3654056073965517
O	-2.7419622156931034	-1.4795302656896567	-1.3723318223965515
O	-1.6178608966931032	-0.9466270356896567	-0.7473835712965515
O	3.7079457543068965	3.1435844643103437	-0.2018721853965515
O	4.026252474306897	2.6209042943103436	0.9914808026034485
O	3.3309825043068972	1.6724796193103435	1.6178740726034486
O	9.809628604306896	-6.898800935689656	-5.057150187396552
O	12.723337704306896	-4.437254585689656	-4.670469467396551
O	11.754174004306895	-1.1880667256896567	-6.439468007396551
O	8.431022244306895	-0.07906064568965654	-7.972287727396552
O	6.730726684306897	2.9604794143103437	-6.506753117396551
O	3.5020770843068965	3.2913298143103438	-8.495035427396552
O	-1.3509546436931033	2.484682944310343	-12.683349947396552
O	-4.825779785693103	-1.9740279556896565	-13.329717947396553
O	-1.5078305006931032	-2.8894765056896565	-11.744624647396552
O	1.5836310443068968	-1.6828552956896565	-9.885084647396551
O	2.8709605443068966	-0.9507099956896565	-6.385353947396551
O	6.276407854306897	-2.153530135689657	-5.199937687396552
O	8.413990154306896	-1.6937030856896567	-2.1116851473965514
O	9.654417804306895	-5.1194777456896565	-1.0835259143965514
O	10.431185404306897	-7.693627215689656	1.5731696326034483
O	9.595852704306896	-4.583794135689656	4.711105602603448
O	6.2672513743068965	-4.4168771056896565	2.9161258026034487
O	4.226176034306897	-2.8071842456896565	0.1912168626034485
O	3.1894521543068968	-5.060717045689656	-2.6570104573965514
O	0.4317757943068966	-4.483479655689656	-5.111591577396551
O	0.1753277593068967	-6.222614175689657	-8.409002277396551
O	-2.7800747256931033	-6.828098145689657	-10.743941837396552
O	-9.575110495693105	-8.941777355689656	-4.597548147396552
O	-10.184060545693104	-4.5731298856896565	-2.0164000373965516
O	-8.744136155693104	-7.168424095689657	0.33139206260344856
O	-12.079908295693103	-8.769496515689656	1.2742747926034483
O	-12.819553295693105	-5.588131745689656	3.2302216326034485
O	-9.302442055693104	-4.931340955689657	4.535527062603448
O	-9.747955575693105	-8.234110215689656	6.361498462603448
O	-5.741715475693103	2.416435004310343	8.608234562603448
O	-3.1096923556931033	0.8590017743103434	6.359364612603448
O	-3.052111855693103	-2.7323533456896563	7.259140812603448
O	-3.338475465693103	-5.747204435689657	5.046082142603449
O	-0.6092274716931033	-8.276170665689657	5.834272952603449
O	-1.6919750336931032	-7.747438995689656	-2.1835855673965514
O	0.7174596043068967	-7.266832545689656	0.7579041526034485
O	0.2088569373068967	-4.350168555689656	3.208895532603449
O	2.280953794306897	-2.441372885689657	5.724546572603449
O	4.909427884306897	-0.10742231568965654	4.226598302603449
O	7.858736964306897	5.188181934310344	3.7488077526034487
O	6.711746854306897	8.673901174310343	2.6867578526034483
O	4.129879144306897	7.904574064310344	0.04080996760344846
O	0.8240121843068967	9.702701724310344	-0.3355195083965515
O	-11.336143395693105	10.289184124310344	1.4328533726034487
O	-4.1557974456931035	11.197318974310344	-2.4284907873965516
O	-5.595913605693103	8.284710154310343	-0.4318309913965515
O	-3.769202415693103	9.016891094310344	2.8109443526034483
O	-0.3066104326931033	7.548096884310343	3.4230316926034488
O	2.538009274306897	9.003544524310342	5.464203042603449
O	5.057813344306897	6.996651864310343	7.435505822603448
O	4.588052234306897	12.217196974310344	10.412354152603449
O	2.2813236443068967	9.234600974310343	10.978689652603448
O	-0.7856248094931033	9.315263424310343	8.696222272603448
O	-3.032599455693103	6.4118881443103435	7.745618552603448
O	-6.237614845693103	6.083716924310344	5.759223542603449
O	-6.241863425693103	3.9559991443103435	2.6410536926034487
O	-7.717862615693103	3.5813700443103436	-0.9232372013965515
O	-8.533430635693104	1.4210087543103433	-4.023045067396552
