37

O	1.0524872942709373	8.801909779678091	4.735780665584415
O	-0.7568849884290328	8.091404543020321	5.240668799647676
O	-0.07227144183377912	8.929302892258947	6.415730523847632
O	0.9580462249703033	8.314541858828203	7.324635972039384
O	2.521226360500526	8.06901125335379	6.845518986060463
O	1.5833027883844486	7.596950379781054	5.569513570641836
O	3.402579068407954	7.6233767239515124	7.536651898403324
O	3.5310553746818	7.2323376013488065	8.768367106889443
O	3.556999869768734	6.094046154656693	7.818181531030213
O	4.924782488796308	6.0026441940475035	7.460586630847095
O	5.3509975855393215	6.890008417026365	6.4803093014594495
O	4.809506315565195	8.087205629288277	7.170143694692422
O	2.3133213625020685	5.355371592167122	8.261380990785405
O	1.3903607123807284	4.815143337125592	9.037228933378364
O	-0.12007734490606994	4.77008002556577	8.351699355321546
O	-1.1854788562006167	3.7850147263042118	8.515779139015285
O	-2.5094867368844227	3.8425099286239477	9.116694195511615
O	-1.3828378310643863	3.615265956497999	9.912907842144342
O	0.0439645959322367	3.618676287419453	9.340277531268162
O	0.14019760753622695	2.1876623074586194	9.235911642714896
O	-1.6800705518114605	2.4171840243364358	8.904363312548362
O	-3.111801080695709	2.3162906514194934	8.517611137948101
O	-2.8329100684313304	1.3933236387337764	9.512077681131201
O	-4.006650538410807	0.743229567246178	9.365060165148167
O	-3.863948374700207	0.25482897209603816	7.887190778982269
O	-2.9043843485827177	-0.805737394845107	7.7113532168231815
O	-2.6737121561658923	-1.1147687061216804	9.08413556774772
O	-2.1342471759506636	0.2354196076296855	9.688604997176798
O	-2.4436480641656275	2.3900111657482954	7.312860672001763
O	-3.841988622862998	-1.8204231115203497	6.961439247603943
O	-5.221849170878373	-1.5837242840012151	6.922309670133149
O	-5.862169367312164	-0.3816958170775764	6.553272971114224
O	-6.445791209223857	-0.6446609893966126	5.261816949848029
O	-6.7992190180833205	-1.9920942781883872	5.082682910741173
O	-7.359234762790272	-2.1597724398597626	6.457136227445026
O	-6.176395196820767	-2.4974480099400336	7.234748348485278
O	-6.153634633806453	-3.1968674998579405	5.076659526125112
