38

O	-3.2784705396377554	4.3271397116903785	12.459996693301324
O	-5.020490701133025	-1.4004262239568384	6.654433237803106
O	-2.799279898653797	-1.3564400321505667	6.507651009427461
O	-3.626002258492968	-2.147787917691023	8.379012838707368
O	-5.203402403012845	1.2755833558833318	11.830905238973902
O	-3.9133180400585097	1.7634208463542858	12.079664856049362
O	-5.855336556929583	1.6983042467710097	10.650268630230395
O	-0.3731225110923128	6.612167920658338	9.310939181803127
O	0.9435106470107575	5.144070916152092	10.503230582079055
O	0.7685332023441402	7.257346866257909	9.029642930718396
O	1.9811201019715357	5.43855287744781	9.677490401727034
O	4.675557917370107	10.547825236128475	5.627331403421152
O	5.698193599853685	9.650038771120492	5.969192017590499
O	-4.3427803730574315	3.4642801693327634	10.520719627081629
O	-2.614279654013285	0.7204451368308078	8.35866299774754
O	3.344764888739806	9.397208166177258	7.126317658161565
O	-1.517208952740447	3.600331298190856	9.135172599572295
O	2.0961294909395574	10.837252131753456	5.855350435300677
O	-4.735662805944652	1.0342742135826617	8.109769587503962
O	-1.4259436323133783	4.660123479844498	10.025884654144553
O	-2.075624752163115	2.498690720211561	9.7973173795286
O	2.738211074391488	6.838181605820868	7.918620529064086
O	-0.7939131986924992	3.2640274944986762	8.19933508980066
O	-3.9445983245579654	3.1282935487700767	11.760990744585142
O	3.5067842002658702	10.564139002239756	6.327248286213886
O	-0.29213900944675514	5.448035844679847	10.018010915051002
O	2.0226717931433336	6.745181182858129	9.180351493762542
O	-5.030607867909336	2.502271791942452	9.846693299715257
O	-3.7859016232797895	0.12754186906259957	8.048035704004558
O	-2.9530724239891106	1.8821912655158681	8.82504663095538
O	-3.8760976711447412	-1.113157649760974	7.403049560056985
O	-4.260731798671146	2.067563202519246	8.674200223890425
O	4.938714391441276	6.384869614408975	8.3637908999893
O	6.186659252954835	6.681100480366176	7.878004927677319
O	6.545655703932982	7.8905213102255125	7.430836071393933
O	5.5802568551045555	8.669580251462136	6.951105324037844
O	4.336966006193744	8.554645849042942	7.521632385232287
O	4.056138762215127	7.371323270843469	8.165263030763628
