33

O	4.422138091661994	11.36674052682341	5.7405262080206665
O	6.454623020698406	10.19753062593808	4.810125447540685
O	-4.259089561688199	0.908139994630305	9.507336684420926
O	-3.344080049630412	1.9590502399926555	9.723668899878318
O	-3.7723307393882712	-0.1625411939306023	8.76281293688687
O	0.8294196028793919	6.988366955834666	8.881609022645065
O	1.7136356153417074	4.881001329294405	8.46734000748984
O	2.011139023556761	7.547857024300413	8.51441759216198
O	2.980274137382135	5.482604666964153	8.419302944430685
O	-2.0372420533115734	1.2686915212951568	8.024912589670476
O	-0.9986818569236928	3.9199831083175	9.072862250459076
O	0.6122550883946691	5.676958965887483	8.60455058657522
O	-2.787099672522181	2.3392247877500143	8.503962445314096
O	3.1675886993083693	6.821272776283866	8.236032083801998
O	5.93621496341227	5.356561705348989	8.58856450674165
O	3.928403182479469	8.519416800639327	6.705044400592124
O	-0.7563741759114566	5.281395731084125	8.796063603001466
O	-2.3591416216672596	3.6850341504191357	8.794772775963073
O	-0.22727564714401938	3.1153731830728115	8.516237585244209
O	-2.661625364722608	0.02590983078366005	8.015094431057033
O	4.190939455691906	7.468075078058473	7.473773315214833
O	5.142764081536431	10.116458451056834	5.463542731237725
O	-2.3831394327311277	-1.1828156829610617	7.2368598711775025
O	5.0737635434807595	9.025023877016354	6.342524213729605
O	7.743938316431226	6.289094734905887	7.522262620185497
O	8.218090050801036	7.218617729314699	6.698148312518326
O	7.337107705833407	8.107067490135496	6.243630698701611
O	6.02646484756842	8.106990164660257	6.459185497610983
O	5.514832354160675	7.186346803679102	7.318539199889214
O	6.467422350201831	6.43778876699803	7.960656808160035
O	-3.568504286799976	-1.6088713801614567	6.633146431864876
O	-1.519388069670721	-1.1255216021000312	6.23933439358534
O	-1.9727596042911046	-2.140910646486965	8.122454287153456
