27

O	5.5567241762913495	12.765457043113088	6.3559880804463775
O	7.705481566150201	9.964764525696223	5.54006588651591
O	5.703031993461439	9.685102692675551	6.825280665314091
O	5.478663431119316	9.404645293940456	5.460211182645582
O	8.287066414788184	9.932276284714902	4.180762758946926
O	7.334258145071083	10.848368346069833	3.4211386523902743
O	6.041213073448941	8.136884490952806	5.598900288498218
O	5.255417272119917	7.8149957212415355	6.550152803461183
O	6.844223103336242	12.045301336122662	3.902674334127548
O	6.113151777781849	7.346174397773788	7.622733843137397
O	6.508580712489042	12.177825217044118	5.190425497364281
O	6.6456002512874655	8.679258992641993	7.3864248246248625
O	7.434127575271975	11.229634066311203	5.980505748995116
O	7.618764905296106	8.954869312871129	6.446907428348958
O	5.058747157213088	6.693756063421764	8.226859378160604
O	4.277232783462175	6.99018329072886	7.0834257178262465
O	3.9708623035521247	8.363098315682462	6.888842233203762
O	2.8283022279564007	8.79153911213652	6.242403810335209
O	1.5802403233593734	9.123360148107968	7.003050890766275
O	2.1147450421374017	8.668144932304148	5.002472171411439
O	4.522217337634438	10.004089185257127	4.766206410196176
O	3.8452297051277515	11.166238667522688	4.825180104141542
O	3.5856287687831356	11.860450678310828	3.491283800752133
O	2.379486671327858	11.222636218847516	3.196011077341254
O	2.775182119500032	11.83182584877375	5.575029602265868
O	2.6201820104083984	11.747955821934134	7.022499625440679
O	1.4069490846939616	11.796917481188714	5.068249549734076
