114

O	8.139799769014706	3.5897443698529417	-1.3152291387632364
O	9.349069839014707	2.237998772852942	-2.385301307763237
O	-1.708369520985294	8.701554709852942	1.2895099622367634
O	0.356422455014706	8.90740951985294	0.25924563623676344
O	-1.292178761985294	7.778111999852942	-0.48494945576323656
O	1.972970019014706	2.4004308748529417	4.4784933722367635
O	3.122395369014706	2.0688302191529417	3.817648912236763
O	1.5936179290147061	3.5966250598529417	3.9352154622367634
O	1.126328899014706	-0.7175845101470584	1.2626925222367635
O	0.06713746501470602	0.5393356798529416	-0.2796870697632366
O	0.622493959014706	-1.8227171801470585	0.7201145622367634
O	-0.587904638985294	-0.4827748201470583	-0.8637300707632366
O	1.456227989014706	-1.6596910301470582	-3.029524837763237
O	1.465561049014706	-2.8097581901470585	-4.086972507763236
O	2.809954759014706	3.0656881198529415	2.0404603922367635
O	-0.464734940285294	5.569351849852941	1.0479229222367632
O	1.385708909014706	-2.870043460147058	-1.6502321677632366
O	6.233423199014706	0.6780477398529416	-0.8514424677632366
O	4.916881759014706	0.2214548898529416	-1.1202700297632366
O	7.185289919014706	1.2836775778529417	-1.7744083777632365
O	3.8132767490147064	0.6924769198529417	1.7588570222367634
O	2.814306859014706	1.0458629288529417	-1.6941525977632366
O	0.25553360201470604	2.7939496698529416	0.23599940923676344
O	3.457072659014706	0.4523485098529416	-0.8385347777632366
O	0.148813838014706	2.5549587258529414	1.4429385622367632
O	3.116428709014706	1.6800967918529417	2.440020402236763
O	0.389498575014706	0.3705310698529416	1.0789519522367632
O	-0.28905473998529396	-1.6526525501470584	-0.23584598976323662
O	2.215944139014706	-1.8289143301470583	-1.9294965177632366
O	2.106029739014706	4.041192459852942	2.6853946422367634
O	0.09754758701470606	6.774999089852941	1.3361372822367632
O	0.029450257014705994	4.753227989852942	1.9247575222367632
O	-0.589887318985294	7.9671944698529416	0.8758570922367633
O	1.161082239014706	6.418063289852942	2.137267972236763
O	2.655527599014706	-0.7084048801470582	-1.0627014997632367
O	0.04508733501470602	1.3137116348529416	2.107056892236763
O	-0.14147053398529397	3.4438174898529414	2.317104012236763
O	-0.970701090985294	-2.7158005101470586	-0.5351714157632366
O	7.916952029014706	2.3568843948529414	-2.0880733877632367
O	1.280676809014706	5.092211919852941	2.1940087222367635
O	-2.055563650985294	-2.8785816001470588	-2.450967487763237
O	-2.092422530985294	-3.7104493901470583	-3.5726098877632366
O	-0.862011120985294	-3.9483298901470585	-4.196180477763236
O	0.29604605601470607	-3.480158090147058	-3.6785088777632367
O	0.32499762001470606	-3.498525640147059	-2.3796357977632367
O	-0.934816604985294	-3.1424608401470584	-1.8307808377632364
O	-2.852816470985294	-14.606914960147058	3.4433807122367637
O	0.46658577901470605	-15.556841560147056	-1.7115916577632366
O	3.122790909014706	-12.974495260147059	-0.8682064937632366
O	3.7276330990147057	-10.139126760147057	-3.348699627763237
O	6.438008549014706	-8.18668356014706	-1.6950097677632368
O	8.944243199014707	-8.755295960147059	1.0784186622367633
O	10.828031579014707	-5.864530680147058	2.550024752236763
O	10.107962679014706	-3.757122020147058	7.883645902236764
O	7.463071729014706	-6.225299900147058	6.747175292236764
O	5.719547249014706	-8.039226860147057	3.860039672236763
O	2.8258318290147058	-7.656950900147058	1.4439341522367632
O	0.363867365014706	-10.427958460147057	0.7618743122367634
O	-2.571036380985294	-11.022629760147058	-1.5524555477632367
O	-5.3616413909852945	-12.555043860147059	0.5493858022367634
O	-7.559043710985294	-7.800292090147058	-0.23199995376323657
O	-4.013594980985294	-6.702252740147059	0.15168710023676346
O	-2.333266850985294	-7.337197280147058	3.5021097822367637
O	0.726184559014706	-5.5512354401470585	4.838169462236764
O	2.6820611790147058	-7.055086710147058	7.659815692236763
O	5.076034269014706	-5.441914200147059	10.153599422236763
O	8.032963699014706	-7.532739550147059	11.440220122236763
O	10.450716479014707	-1.7656330801470586	13.244517822236762
O	4.268534359014706	1.6976000668529416	11.320989722236764
O	0.715447449014706	2.629118570852942	12.241671622236764
O	1.033086099014706	6.349703349852942	11.363551822236763
O	0.7704542590147059	5.164330329852941	7.822522422236763
O	-2.812606030985294	4.093386029852942	8.585622492236762
O	-3.588915210985294	7.046792769852941	10.875923022236762
O	-3.670013720985294	9.236011789852942	7.786838752236764
O	-5.301631140985294	6.6640891198529415	5.417301692236764
O	-8.284191890985294	6.961501259852942	7.7519727922367645
O	-8.084184130985294	7.2883221698529415	-7.036332797763237
O	-6.374157400985294	6.6671604498529415	-3.7705856177632366
O	-5.688367740985294	3.083546139852942	-2.5471535177632365
O	-8.278418890985293	2.5606254468529417	0.1423459792367634
O	-7.541685710985294	1.3172776848529417	3.6415161122367636
O	-10.073677700985293	-1.4559150901470583	4.539924882236764
O	-2.627196400985294	-3.1843466201470587	7.280773682236764
O	-5.484214660985294	-4.158067640147058	4.956662362236764
O	-6.041717240985294	-2.1429216101470585	1.7602259622367633
O	-8.054278640985293	-2.7516240201470588	-1.4764458987632367
O	-6.253738040985294	-5.128676560147058	-3.912170157763237
O	-1.544085510985294	-5.380191230147059	-11.548084377763237
O	1.093517889014706	-4.236205500147058	-9.128378177763237
O	2.967880399014706	-0.9784524701470585	-9.469814987763238
O	2.539833329014706	1.2756471788529415	-12.486860477763237
O	-3.287778570985294	10.090266809852942	-10.923316477763237
O	2.661622449014706	13.445123439852942	-0.5923484158632366
O	7.013708319014706	10.934217849852942	-2.9790869777632367
O	4.766475349014706	10.917328359852942	-6.0883872677632365
O	6.237837379014706	8.623743199852942	-8.722962627763238
O	6.576904509014706	3.167671589852942	-8.369673667763237
O	4.022732149014706	4.571593629852941	-5.854456147763236
O	1.106705669014706	4.2294348198529415	-8.130795527763237
O	-0.893287223985294	1.0061611598529416	-8.350287127763236
O	-2.734666220985294	-0.49365174014705815	-11.279598077763238
O	-5.949706810985294	-2.4616101701470585	-11.217360177763236
O	-7.260320300985294	1.8806805408529417	-13.310884177763237
O	-4.522251730985294	3.7953493098529414	-11.446802777763237
O	-4.394631850985294	4.799071499852942	-7.7966079677632365
O	-2.074143940985294	6.8922081898529415	-5.7467816077632365
O	-0.328122836985294	5.033647459852942	-2.952147367763237
O	2.814046859014706	5.289831479852942	-0.7793300237632366
O	5.196228559014706	4.312208579852942	2.5847951722367632
O	3.903028019014706	6.842394119852941	5.216984452236764
O	5.126624439014706	10.249408469852941	4.2889820122367635
O	1.761883749014706	12.03208283985294	4.156592422236764
O	4.287303959014706	17.178598539852942	-5.718580567763237
