95

O	-4.163945447671186	-2.674310373508474	0.5551359034711861
O	-3.6599830676711864	-3.4536518335084745	-3.491163416528814
O	1.5852929723288138	0.9684383224915256	1.4769792734711862
O	2.0272925123288137	-0.46050072650847446	-0.42514460152881395
O	-3.088684477671186	2.8710133864915255	2.2617017634711862
O	-0.6468116376711861	2.539530616491526	1.723123543471186
O	-0.011006247671186076	-2.896547993508474	-1.928962106528814
O	-1.9372112976711862	-1.3407783535084745	-0.6190468092288139
O	-2.831132967671186	-4.354510493508474	-4.4725231765288145
O	-1.5364657156711863	-4.1668494335084745	-3.8443629665288137
O	-6.977346777671186	-6.341217213508474	-4.270644146528814
O	-5.469741387671187	-4.210878253508474	-2.052768656528814
O	-4.076531637671186	-5.685948043508474	-3.2090495265288137
O	-6.313136177671186	-5.275920413508475	-2.561293816528814
O	-4.797490297671186	-5.667706333508474	-4.485590046528814
O	-0.8766182496711862	3.5660102764915256	2.565759643471186
O	-2.2242283296711864	3.9013915664915255	2.3967834234711862
O	-2.798191507671186	1.6836615664915255	1.7108613934711863
O	2.1554934123288136	1.6711876564915253	2.217886493471186
O	1.6648416223288138	-1.4802407735084746	-1.217591813528814
O	-1.023559582671186	0.2532989804915255	1.3510695834711863
O	-3.205216937671186	-3.2458565635084744	-0.26266998352881393
O	-1.7326222669711862	-4.399300233508474	-2.444308156528814
O	1.136917002328814	0.1817080734915255	0.38251275347118596
O	-1.4971960146711862	1.5638394264915254	1.306563533471186
O	-2.3165031306711863	-2.5490028535084743	-1.124587361528814
O	-1.3248739256711861	-3.251205063508474	-1.820167586528814
O	-0.18229467767118623	-0.0695163915084745	0.27552207747118607
O	0.369946972328814	-1.7697035035084745	-1.2556667385288138
O	-0.5757561676711862	-1.0813341735084745	-0.534265385528814
O	-4.241788067671186	-4.392637823508474	-2.670909126528814
O	-6.069959127671186	-5.300116603508474	-3.9617756165288136
O	-2.4914760126711863	5.570651516491526	2.4268365734711863
O	-3.8556997276711864	0.3549905744915255	1.926295313471186
O	-0.9908577736711862	4.382997606491525	4.769860363471186
O	-0.2960221476711862	4.247875256491525	3.6022368034711865
O	-1.6769059227711862	5.820989916491525	-11.453587086528815
O	-1.7073223099711863	2.488660516491526	-13.331669386528814
O	-4.375867557671186	0.3154373644915255	-11.743087986528815
O	-6.436256467671186	0.9007907074915256	-8.587520746528813
O	-6.060144997671186	-1.3427429135084745	-5.888217846528814
O	-8.240234297671186	-0.39763093250847453	-2.9070736965288138
O	-11.277713627671186	1.7000484164915255	-2.696248186528814
O	-12.452183447671185	2.7335765564915255	0.7353334734711862
O	-14.850778747671185	5.558103336491525	1.385272603471186
O	-10.245997597671185	7.445671096491526	-0.7995568981288139
O	-8.433329567671187	4.938901776491526	-2.9301157465288137
O	-5.146045757671186	3.0595643364915257	-3.313395356528814
O	-3.3876843276711863	2.742950096491526	-6.696344566528814
O	-0.3801311076711862	0.8671242924915255	-7.972147856528815
O	1.6077314723288136	3.3021788164915256	-10.068783866528815
O	10.092013652328813	3.5850204664915255	-9.418203306528815
O	6.9459229423288145	1.4781333064915254	-8.870410896528814
O	4.935684552328814	2.9596085364915257	-6.022063336528814
O	1.7211282223288138	2.795408266491526	-4.041524106528814
O	-0.4861990576711861	5.855269606491525	-4.283193446528814
O	-3.229676467671186	6.781075096491525	-1.860737186528814
O	-5.964497127671186	9.213673356491526	-2.852720386528814
O	-8.393261747671186	11.211958606491526	-0.772403866228814
O	-11.975198747671186	11.779100106491526	-2.017875716528814
O	2.0383982523288138	11.394315306491526	6.552388213471186
O	5.488974002328813	8.640678436491525	8.461843403471185
O	6.292014612328813	0.7627611414915255	4.925120133471186
O	8.206499592328814	3.808906096491526	3.753777153471186
O	6.669141452328813	7.147080406491526	2.7325708134711864
O	8.275571832328815	8.298743356491526	-0.541038025528814
O	0.29641680232881384	9.986533246491526	-0.674959322728814
O	3.171928012328814	7.9942555764915255	-2.178857786528814
O	4.651131732328814	5.000941846491526	-0.30339370952881395
O	6.805702732328814	2.0010334564915255	-1.2526040555288138
O	4.946510952328814	-0.7152882935084746	-3.1039676265288136
O	3.438000442328814	-6.437978283508475	-4.187443676528814
O	1.4818637923288138	-9.092815133508473	-2.207415726528814
O	-0.9910982086711861	-6.968550843508474	-0.33909608052881396
O	-2.099688821671186	-7.365295073508475	3.265596403471186
O	-0.7991716626711862	-10.217548093508475	5.390793343471186
O	-5.287359177671187	-11.635514193508474	2.548207093471186
O	-3.2910893076711862	-6.473389543508475	13.160711413471185
O	-2.731871917671186	-8.712031343508475	10.125043113471186
O	-4.923026997671187	-6.3545380935084745	8.079383963471185
O	-2.411736460671186	-3.6254227435084747	8.639008313471185
O	0.675004512328814	-5.604508053508474	7.708549193471185
O	1.9537917023288136	-5.713609573508474	4.146547203471186
O	3.724839592328814	-8.436800523508474	2.259864633471186
O	6.266384162328814	-7.867209903508474	-0.4495627925288139
O	8.598392452328813	-10.129029593508474	-2.443461186528814
O	10.275608252328812	-13.102121593508475	-0.7671135528288139
O	7.847787682328813	-13.098630393508474	2.166025753471186
O	8.955400552328815	-9.671248093508474	3.425051943471186
O	6.5420680823288135	-8.186327033508475	5.979925403471186
O	6.164408522328814	-4.578024863508475	6.988197173471185
O	3.9996419423288136	-2.6311188735084743	9.446983013471186
O	1.4574578323288137	-0.07680007750847445	8.032172983471186
O	-1.9520473346711862	1.4877589664915254	8.867226233471186
O	-4.318901567671187	4.377921646491526	8.200202043471185
