35

O	4.608479972530927	10.811351716264195	8.272506242063834
O	6.596180193858675	5.123308651636325	8.278713913701251
O	3.969146655412187	9.960472883183899	9.220127126007185
O	2.8509239962799082	9.348361819244138	6.2604382974349315
O	4.507315708716354	8.892108041662784	9.76705716513631
O	5.693591320786862	10.361512156554397	5.948329398273832
O	5.841382638955771	8.772182102548406	9.296554555947472
O	2.9759836290849098	12.113562848350398	2.316908007017757
O	3.976837809782923	11.586817523756352	5.953395137594683
O	6.202816015158452	9.267601134800659	7.950800585559428
O	8.316964635268205	6.526338466037001	8.544755016714614
O	6.391468431865958	8.40295582042493	6.817397223032664
O	1.3875297070815757	10.872687600599795	4.041030150628025
O	6.304607496845794	7.170588319618588	7.663248353080084
O	7.372870003087268	6.265401284848423	7.813566443265653
O	5.489369872699703	5.65710163785316	8.271419931185095
O	5.3186132273582745	6.7047461768622165	7.051329410348943
O	4.065914973120436	7.445819399132292	7.0298332425549965
O	3.016243984844345	7.611278812811451	7.848306034504238
O	2.6549845969905244	6.816295167487028	8.945887870699506
O	1.4822223241628505	7.169283550810551	9.55024187105401
O	0.6673412963240564	8.042586561399842	8.897932236759237
O	1.2227020129088788	9.009951355546598	8.037596953889027
O	2.25001909968017	8.611714752417495	7.266113890272756
O	4.0299237142494695	8.624191775054392	6.110231644118734
O	5.388805811916124	9.039447703086747	5.959614374391466
O	5.73458902206924	10.469241315589016	7.4107012622137525
O	2.918696665885597	10.715966144874937	5.828747415746025
O	2.711841235033921	10.711278096880054	4.313911582677985
O	3.4412135447063354	11.855313529532607	3.6186427657924396
O	4.879452209817249	11.298600962766807	3.7614448526384874
O	5.1431481288138166	11.475007955665413	5.170654846907931
O	1.9575988556128316	11.743890298097815	6.287366757974912
O	0.5493612390356324	10.353389058743577	4.996010171265418
O	2.970930526547152	13.516151551547276	1.901165356007219
