71

O	4.740171162152272	-0.39253996539545477	1.9778400818636368
O	4.695467552152272	0.8901684787045453	2.012972011863637
O	3.5812446921522727	-3.2453744253954553	-1.224236448136363
O	4.307807852152273	-2.1713456853954547	-0.794012438136363
O	2.3664875221522723	-3.0059722053954547	-1.803640558136363
O	-1.2337732378477275	-1.187232955395455	0.16575635086363702
O	3.8401197521522725	-0.8673073853954548	-1.0052060741363629
O	1.8353046721522726	-1.760192475395455	-1.623658558136363
O	-1.2322170378477275	-0.5174341253954547	-1.194596828136363
O	1.8642293521522726	4.385716884604546	0.9891929518636371
O	0.5915144631522725	3.841871634604545	0.640295208863637
O	2.4021620621522723	2.4203504846045454	1.867635411863637
O	5.002898862152272	2.2480379446045453	1.724917451863637
O	2.8708254221522727	3.599675104604545	1.419142731863637
O	-2.1301338478477274	0.5925593236045452	-0.6061351641363629
O	2.5186496521522725	-0.6993552253954548	-0.9600983531363629
O	-3.1145732578477276	-0.1658851153954547	-0.340678399136363
O	4.127608652152272	3.174182384604545	0.961907861863637
O	-1.5146999678477275	1.7577225296045453	-0.10109053323636297
O	-2.5231321678477276	-1.476709635395455	-0.2803129031363629
O	5.085831112152272	2.9478992746045454	2.791539101863637
O	0.5353094191522725	0.5747029756045452	-0.5664841131363629
O	1.5981450421522725	0.12323353060454523	-0.29446248913636297
O	1.6843008621522726	0.3187951466045452	1.047248231863637
O	1.3749865521522726	1.6851226436045452	1.503171401863637
O	0.49232588115227255	2.502056174604545	0.798902195863637
O	-0.08612792184772747	1.6125804866045452	-0.12599061183636295
O	-0.5666363958477275	9.035265894604546	-9.976065458136363
O	2.1134241721522726	9.125301494604546	-7.277344738136363
O	4.600712422152273	6.4449251746045455	-6.177694678136363
O	4.322297232152272	5.123587494604545	-2.665779878136363
O	7.065614852152272	2.548768084604545	-2.370911218136363
O	10.222418522152273	1.7860189976045453	-4.252881098136363
O	11.942122722152272	-1.5011893653954549	-3.566599628136363
O	9.815795882152273	-2.966926555395455	-8.380270738136362
O	7.629269442152273	-0.10822535539545475	-7.181171898136363
O	4.237763372152273	0.7013912816045453	-5.677029588136363
O	2.0220332821522726	3.472753364604545	-7.074276108136363
O	-1.2535531778477276	5.033461654604546	-5.990745408136363
O	-3.3841631578477274	5.316559814604545	-9.106665358136363
O	-8.612262777847727	4.3695171146045455	-6.784191528136363
O	-6.126705597847727	1.5188677736045453	-6.695381558136363
O	-2.6604072678477273	0.3838517766045453	-5.702758898136363
O	-0.36772365484772745	-0.5996295053954547	-8.578017898136363
O	2.7421160421522726	-2.795111925395455	-8.134585688136363
O	5.436497832152273	-2.741281535395455	-10.779531008136363
O	-5.824784737847727	-7.057258695395454	0.7384785098636371
O	-6.3632172878477276	-8.379663965395455	-5.811017668136363
O	-5.0326208778477275	-4.386998415395454	-5.653678528136363
O	-7.293101927847728	-2.386388275395455	-3.379114108136363
O	-5.982622757847728	0.9147370840045452	-2.060892838136363
O	-5.041506287847727	4.899451324604545	2.363642431863637
O	-2.8659206878477277	4.781548164604545	5.518624231863637
O	0.010485912452272532	2.588192944604545	4.450868331863637
O	1.6061802521522726	-0.036981755395454674	6.686421241863637
O	0.47951451415227253	-0.6728983853954548	10.268089291863637
O	4.1243783921522725	-0.21746283539545475	11.252979891863637
O	4.331375562152273	3.3191799646045452	9.869271591863637
O	0.8829631531522726	4.067289144604545	11.237364191863637
O	3.2974657621522727	-5.060043995395454	11.307816191863637
O	5.2194875221522725	-4.113033455395454	8.136611921863636
O	2.9935081421522725	-6.5528565153954546	6.237896031863637
O	-0.28376703384772745	-5.223924585395454	7.525955151863637
O	-2.0624375478477273	-2.345258705395455	5.836973041863637
O	-4.350947097847728	0.30112889260454523	7.295254551863637
O	-7.331498977847727	1.9083522136045452	5.605361501863637
O	-9.977892577847728	4.4076492746045455	6.578393541863637
O	-8.688524747847728	2.0377588046045454	11.414459291863636
O	-3.1347006578477274	-8.792153655395454	5.973130771863637
O	-0.7328609648477274	-8.622410875395454	3.007301811863637
O	2.8424312121522726	-9.525859375395454	1.971711991863637
