29

O	9.518368246358882	11.484397631190056	3.351598199873337
O	8.371985981729104	12.030718165531837	2.691280321283509
O	7.1239988575644855	11.297175360728176	3.0915584141470998
O	9.704774341231472	10.328637117616546	4.353255870198248
O	8.40807135723948	9.765311361292124	4.7234793476142904
O	7.455306167845781	10.825859254937091	4.445915880514818
O	6.6093728200559765	11.349195915693263	5.415359444628872
O	5.890063924031171	10.32124092940515	6.091933894272255
O	6.784122697418095	9.347898159353882	6.584312089485963
O	8.014642519422775	9.093876385432385	5.918189457707217
O	5.248869760556713	9.528592033246046	5.142950852360604
O	3.8241246351744067	9.571425598282213	5.2320665790796435
O	3.0906438890522434	10.859744974204462	5.273516027672927
O	1.6090350033550571	10.542432843714364	5.071418676587469
O	0.9841107665919697	9.875015547491742	6.253877562234308
O	2.0413173531639215	9.128996956812585	6.984697956450518
O	3.159219016197084	8.600368985769624	6.13824775330582
O	-0.29298748616658	9.153290140219013	6.043137778142549
O	-0.22192377072727698	7.665843334004757	6.170721951215604
O	-0.020808942554693566	7.18457381275748	7.50277793508767
O	8.28405454131505	7.780200105382815	6.287764846965552
O	7.433594203750614	7.167215312971297	7.173091491012959
O	5.993957369836666	7.213168913188952	7.363224015863411
O	5.805298179560478	5.91415363683215	8.069987129178518
O	7.021271173442108	5.279063966846608	8.376928765192272
O	7.965853873317059	5.986402254787996	7.681186432501674
O	4.6139300141484645	5.682912055125291	8.899975502742745
O	3.2515507021904817	5.407433760976227	8.41891549885014
O	3.5805415133527125	6.726723247729101	8.92495959785584
