120

O	0.979313789540541	-3.8336390913391893	0.3518445316216213
O	1.203125259540541	-5.343589011339189	0.5907223316216214
O	-0.19822979545945907	-6.098940591339189	0.6359131816216214
O	-0.9655842174594591	-5.185517441339189	-0.38022379937837875
O	-0.6795699054594591	-3.805975901339189	0.04454426562162128
O	-0.1548483684594591	-4.058104951339189	1.3988185716216215
O	0.3913238545405409	-6.966445421339189	-0.5245448603783787
O	-0.42833856855945907	-7.015771611339189	-1.6001610813783786
O	-0.05773821845945909	-4.6369366113391886	2.6044306316216215
O	0.6567120595405409	-4.788374771339189	3.7314518116216218
O	-0.7210788214594591	-5.398174501339189	3.748875191621621
O	-0.7002493764594591	-4.358634371339189	4.635837541621621
O	-0.18989662945945907	-4.638050091339189	6.003447531621621
O	0.7416666395405409	-3.5506574613391892	6.075748331621621
O	0.840732859540541	-3.6183359913391895	4.649017451621621
O	-1.188499104459459	-3.3280502313391893	3.726386191621621
O	-2.0149695204594593	-4.075426311339189	4.529948881621621
O	-1.816718740459459	-4.391925541339189	6.092176501621621
O	-1.418014014459459	-2.8151140913391894	5.851545241621621
O	-0.6923748934594591	-1.9989536513391892	4.862758181621621
O	-0.8529043044594591	-2.0766641513391892	3.343352121621621
O	-0.886328911459459	-1.3005247813391891	2.0479194516216213
O	-0.613310106459459	-0.8865307413391891	0.8648195616216213
O	-0.1585935864594591	0.22054465566081086	0.05660030862162124
O	-0.2932633734594591	0.8343960966608109	-1.2584282893783787
O	-0.7829074834594592	-0.14827744633918916	-2.3534252883783786
O	0.21387449354054094	-1.115504391339189	-1.873131788378379
O	0.4379227075405409	-0.7696222983391892	-0.40974362837837874
O	1.7171830195405409	-0.08081099333918915	-0.5005492423783787
O	0.758478049540541	1.2007638386608108	-2.252202018378379
O	0.4426410965405409	2.4628777386608105	-2.6453049883783786
O	1.095523069540541	2.4628543286608107	-3.9279466183783787
O	1.320928419540541	3.0636101886608107	-1.6976186243783786
O	0.752734309540541	1.0281934536608108	-4.341160078378379
O	1.9775313295405408	0.17925782946081087	-3.8480004983783784
O	2.7440628395405406	-0.15139624333918913	-5.011827838378379
O	3.2368323495405407	1.366578138660811	-4.768921288378379
O	2.387661809540541	2.1598186286608105	-3.748958608378379
O	3.398661539540541	-1.185865711339189	-5.796985798378379
O	3.1267464195405408	-1.996167841339189	-6.975515898378379
O	3.7690849295405404	-1.756973551339189	-8.276610248378379
O	3.3435073595405407	-2.8587437613391895	-9.280565078378379
O	4.278611189540541	-3.960514391339189	-9.02043727837838
O	3.663345709540541	-4.427218811339189	-7.819507488378379
O	3.183550189540541	-3.3778940613391892	-6.942714698378379
O	5.485859179540541	-3.2572445413391895	-8.916417658378379
O	-13.202701970459458	-2.574216711339189	7.983755801621621
O	-12.367302270459458	-5.222078361339189	10.63009927162162
O	-10.673498070459459	-8.179209361339188	8.889475671621621
O	-6.018731180459459	-9.240524131339189	4.684879721621621
O	-6.010468230459459	-9.527764091339188	1.021461281621621
O	-9.213148220459459	-5.186771681339189	-8.832082008378379
O	-10.121494750459458	-4.907088061339189	-5.186219818378379
O	-9.437566730459459	-5.892781991339189	-1.5374458743783788
O	-7.3752235604594585	-4.931204911339189	1.4889392316216212
O	-8.733061480459458	-4.627304481339189	4.945498031621621
O	-7.133836830459459	-4.035399621339189	8.35432746162162
O	-9.518963290459459	-1.494774071339189	10.009791771621622
O	-10.034366490459458	1.587748848660811	12.123710671621621
O	-5.653002300459459	1.402391438660811	13.129698171621621
O	-5.277029860459459	1.5702956886608108	9.36316247162162
O	-5.134259970459459	-0.19609149533918915	6.179444481621621
O	-8.02058104045946	0.16419884936081086	3.694846831621621
O	-7.870839220459459	-0.6345723623391891	-0.030292742378378756
O	-10.956263570459459	-1.2014722113391891	-2.009790978378379
O	-11.645215670459459	-0.9540642813391891	-5.745352528378379
O	-11.385316070459458	-1.7187623113391892	-12.859748828378379
O	-11.829338170459458	1.9518148186608109	-13.61784392837838
O	-6.364943550459459	4.3575492686608115	-12.98297362837838
O	-7.082553640459459	3.2783786786608107	-9.41902357837838
O	-6.739356840459458	6.809213918660811	-8.048972808378378
O	-3.3998147104594594	7.536392178660811	-9.819026398378378
O	-2.025028810459459	5.550158868660811	-7.143304458378379
O	-2.8878655804594593	8.03692092866081	-4.554982448378379
O	-1.999964260459459	10.963574158660812	-6.888672478378379
O	1.6456162495405409	9.889527868660812	-6.388924728378379
O	1.436774759540541	9.00875928866081	-2.740372918378379
O	0.4186186185405409	12.691171658660812	-2.1343548083783785
O	10.31675102954054	4.654366458660811	5.096310861621621
O	7.546245589540542	4.864788988660811	2.4655431116216215
O	4.1526869395405415	3.7439856686608106	3.4329455916216216
O	2.121396629540541	6.803324368660811	4.138924511621621
O	-1.202241231459459	7.696516608660811	2.5210506616216213
O	-3.636810960459459	8.850893108660811	5.259248351621621
O	-7.615429550459459	4.280131228660811	-0.16817356737837874
O	-6.350136130459459	4.5667434386608114	3.4148701316216212
O	-2.7063843704594595	4.170436048660811	4.384515031621621
O	-0.753098178459459	3.450903698660811	7.631427181621621
O	-1.021864491459459	-0.18536252133918915	8.91358696162162
O	0.9768399895405411	-5.123239231339189	10.859349771621622
O	3.2850772295405406	-7.782774191339189	9.717063471621621
O	2.4006293795405407	-7.836666831339189	6.1706941116216205
O	5.125900179540541	-8.339492691339188	3.489676691621621
O	8.882552359540542	-8.70134192133919	4.037756991621621
O	14.682234029540542	0.23396134966081086	2.500642711621621
O	11.036327829540541	5.439602018660811	-10.40090666837838
O	9.441170029540542	2.626361458660811	-8.52731443837838
O	9.620264829540542	0.00995177806081085	-11.283016628378379
O	9.627927729540541	-2.6145522913391894	-8.697184598378378
O	11.622356529540541	-2.6123784713391895	-5.633064388378379
O	7.1064819995405415	-8.62292460133919	-1.931421558378379
O	6.778710299540541	-4.810888001339189	-2.0386767183783787
O	8.40058447954054	-4.046647601339189	1.3119554416216213
O	6.137949879540542	-4.018616741339189	4.442912681621621
O	6.964994519540541	-4.8406735213391885	7.919052091621621
O	5.472167679540541	-3.2571189713391893	10.917258071621621
O	11.012474929540542	-4.945075891339189	12.546808271621622
O	10.325104129540541	-1.6302015113391892	10.816237971621621
O	10.50642652954054	-1.796506921339189	7.006629171621621
O	8.800791469540542	0.5055924166608109	4.409026401621621
O	8.741189399540541	0.8388085476608109	0.6380645916216213
O	5.575862469540541	0.5335075496608108	-1.0461020993783787
O	3.835784959540541	-1.1463397413391891	-3.9888415583783785
O	-0.22954773545945906	-0.8879507683391891	-6.554517628378379
O	0.6161415095405409	2.3104177386608105	-8.622269338378379
O	3.6469194895405406	2.0396643186608108	-10.975070128378379
O	5.349576109540541	4.991720208660811	-9.452380648378378
O	6.110566769540541	6.9023183486608115	-12.51119702837838
O	6.272704909540542	-10.990092641339189	-15.582448528378379
O	15.63344752954054	0.4008333906608108	-9.188671228378379
