32

O	5.339974525872015	9.743981729327393	3.962738599478147
O	4.219638171779015	11.271874848705128	5.357659329290235
O	-1.4885918979710677	2.6222166925713193	10.73760034825621
O	-1.3187561001910546	2.376172732365694	12.071274134310226
O	-0.9976987272880455	3.8051121521691806	10.155728261913179
O	1.7771527740489632	5.314816274710577	11.077968651902241
O	2.0991222441368627	7.179855273449432	6.768685248780739
O	2.3297956326164266	4.639197832509254	9.988293876445574
O	0.9572162738108387	6.664402701204171	7.446698399310646
O	-0.5885132858498303	4.393581086220252	12.342052486787079
O	0.9599931346630419	7.11340027525251	9.666796068533527
O	3.368515968333892	5.764519845564297	8.05630841345823
O	-1.0588400968027605	6.264660893461441	11.051010141683022
O	-0.3715173068912936	3.116822301770049	12.703000179341842
O	-0.6960308880826229	4.767423610279582	11.031657464875899
O	1.3350746145719485	6.628815718723003	10.844828845555726
O	3.249751134548452	6.94488113239882	7.453032320284182
O	4.335475533326198	7.881540295337931	7.468426648207853
O	5.843659811179892	5.454576933548635	8.666616999541413
O	4.135102848653222	9.002237708474937	6.805730019168681
O	0.16667811555074596	6.764161214572619	11.608451570641396
O	1.0867605484644	6.069602966848167	8.705601079228186
O	2.300313645174372	5.404483399982683	8.877492816186345
O	5.358628745415759	10.306128012203484	5.3378442555857255
O	5.3386418164226646	9.265720135890888	6.284104809489922
O	-0.6097122676123652	2.916460093039884	14.441747170452732
O	7.751861014782494	6.462083768899007	7.947049644321895
O	8.34539395625406	7.431166024854468	7.312551506204218
O	7.5717346161614545	8.389284052454293	6.827752595317404
O	6.260278611288291	8.410807722010267	6.695852274128207
O	5.617979240941504	7.394168907328099	7.321353577252531
O	6.40399272437241	6.563881786765247	8.083767815208933
