93

O	0.025721055532257286	-0.5746681689822595	-2.8648113963564517
O	1.3766612255322574	-0.26833502898225947	-2.7031790163564517
O	0.7579457255322573	3.3080319810177405	4.083667493643548
O	-4.1806757344677425	-1.1027780289822593	1.8597754736435483
O	3.4858755855322574	-0.08774541898225952	-3.6387059463564517
O	2.2070663255322573	-0.43686967898225926	-3.7250690463564515
O	4.721292015532257	3.8020684610177407	1.3683363536435484
O	3.0882223855322573	0.7543552370177405	-1.4943068563564517
O	3.9168868955322576	0.4999548510177405	-2.527168316356452
O	1.7301588855322572	0.43058325101774053	-1.5343590163564516
O	-0.8729874444677427	3.4414268710177405	2.082880403643548
O	1.2391865955322574	0.6560694210177406	-0.23482269035645165
O	2.8129242555322573	4.111986351017741	3.7584604036435483
O	-0.1137133944677427	0.34538545101774054	0.22111499264354836
O	3.3760785455322573	1.4386568320177406	-0.35983708535645165
O	-0.4245610333677427	0.09290382101774064	1.5774248536435485
O	-1.6707019544677426	0.28257378101774067	2.2131132236435485
O	-2.7374193844677426	-0.1954265689822594	1.5246355036435484
O	-2.6030003944677427	0.29482564101774056	0.29350314764354835
O	-1.3517225494677427	0.4343888910177405	-0.3746849453564516
O	2.2206241555322572	1.4746508148177406	0.31367308964354834
O	2.1964168455322572	1.7788912820177405	1.7366858336435484
O	1.6017649755322574	3.1083431610177406	1.9438294336435482
O	0.20104281553225728	3.3417296510177406	1.5998051336435484
O	1.8133477355322571	3.2186251110177406	3.4590215236435484
O	2.8827088955322573	5.2811206810177405	4.540418553643549
O	4.3213859055322565	5.25839608101774	4.965775913643548
O	2.0592803355322573	4.906719511017741	5.699603143643548
O	4.736371145532257	1.6511892287177405	0.1441813646435484
O	5.208593875532257	2.9884963610177406	0.3949308696435484
O	5.570441415532257	4.66242927101774	2.0178054636435485
O	7.2582057555322566	-11.15883937898226	0.5370214836435484
O	10.438130875532257	-10.215772078982258	-1.4108223663564516
O	11.711020675532257	-6.878244138982259	-0.04509096025645164
O	10.129431275532257	-4.4596036489822595	2.4571600236435485
O	9.299703905532256	-0.9776876689822596	1.2341659836435483
O	7.819189335532258	0.5709783750177406	4.353662703643549
O	7.815920145532257	0.035595371017740574	8.076765843643548
O	5.333584425532257	1.9800222950177406	10.204781653643547
O	4.258104825532257	1.1992181390177405	13.752782053643548
O	0.9353088655322574	-0.4780970289822595	12.968680053643547
O	2.5472939355322572	-2.6540403489822593	10.312211953643548
O	4.736835235532257	-2.9140934889822594	7.214968653643548
O	4.703522385532257	-2.8928450389822595	3.4550228136435486
O	6.354110225532257	-5.37029957898226	1.2015198836435483
O	6.942790315532257	-5.800155348982259	-2.5055685063564517
O	6.166233415532257	-9.43515087898226	-3.3221826463564517
O	4.578417605532257	-12.02644597898226	-5.534133316356452
O	1.9507558555322575	-7.25295920898226	-5.705393196356452
O	2.1814583055322574	-5.101587368982259	-2.7849751463564516
O	1.5925591755322572	-6.54708116898226	0.6740080016435483
O	0.6914521655322574	-4.927434478982259	3.8967696236435483
O	1.1347802855322573	-6.3376011789822595	7.254757523643549
O	-0.5095165284677428	-5.5973326789822595	10.599240053643548
O	1.5500610455322574	-5.972919958982259	13.780372153643548
O	-7.028299404467743	-2.560946428982259	10.282539953643548
O	-9.485453084467743	-4.539112798982259	8.156872113643548
O	-9.394996384467744	-0.3257754189822595	5.278294613643548
O	-10.248638554467743	-3.294990588982259	3.0574765836435485
O	-13.984071524467742	-3.3246043089822592	3.8037614436435483
O	-14.205670424467742	-0.14564570898225937	1.7334112536435484
O	-11.677275924467743	-1.0729978389822594	-0.9597036203564516
O	-5.1454186344677435	1.5054180639177406	-6.070501936356451
O	-6.912184124467743	-1.8283660689822596	-6.429330066356451
O	-7.339279324467743	-4.362622348982259	-3.6206984363564514
O	-6.419235754467743	-7.836165348982259	-4.903159546356451
O	-3.647866644467743	-6.859544238982259	2.6741270236435484
O	-2.7556773344677428	-7.372400048982259	-0.9825810753564516
O	-3.1185184444677425	-4.616624938982259	-3.5521052063564515
O	-1.7357151844677428	-3.774398638982259	-6.986290596356452
O	1.9327072255322575	-2.6568927389822594	-6.903217026356452
O	6.616509405532257	0.7107658390177406	-8.785608486356452
O	7.522248445532257	4.358614271017741	-8.063772946356453
O	6.259409705532257	4.78423605101774	-4.485137206356452
O	4.404788185532257	7.877126201017741	-3.3280226963564514
O	3.9167982355322573	10.94392978101774	-5.534950676356452
O	-6.8147867044677435	12.72589292101774	3.5131475536435484
O	-6.054108114467743	13.52585362101774	-0.10331756235645163
O	-2.4240143144677426	14.634739421017741	-0.3787407673564517
O	1.7774644655322573	11.40252916101774	0.24554687764354835
O	-1.3131811154677426	9.29060137101774	-0.33480131035645166
O	-0.9868066734677428	9.15254266101774	-4.129931986356452
O	1.0213005055322573	6.341036821017741	-5.747632816356451
O	3.0213410955322573	6.441831861017741	-8.983995096356452
O	3.4629850455322573	3.5444187210177405	-11.363828646356453
O	3.796389495532257	8.459042111017741	-14.830205546356453
O	-0.9701451034677426	8.12791250101774	-10.633626046356452
O	-3.5113136744677425	6.490388461017741	-8.355061856356453
O	-5.3920697744677435	7.5552549910177405	-5.221297016356452
O	-4.861926974467743	5.66435087101774	-1.9865470063564517
O	-4.686765524467743	6.0559357210177405	1.8927236936435485
O	-4.804508574467743	4.3957926210177405	5.424463043643549
O	-8.433368024467743	3.7952498910177406	5.945976703643549
