25

O	5.1194487182494175	10.053272158675757	3.9126897919582984
O	4.117296789712153	11.051322550954321	5.602023925495387
O	6.667086580232979	10.63415532458731	5.428446252860319
O	2.4389416713120156	5.4360759193003725	12.655695181998329
O	3.5726259289553695	6.126059011864504	12.228486171535591
O	1.440029817952174	8.677634354721851	10.03484435386055
O	1.6465680222915164	7.973606092394177	8.831984427343704
O	1.2854968765805133	5.904135757598398	12.16277866216188
O	0.8526864369808207	7.878128475939189	11.009068874185987
O	3.6523766028025078	6.27481840695088	10.836025229783171
O	3.3831149193251644	6.3495554966754	7.951395612092348
O	2.594683118321987	7.010908883689862	8.976889394394732
O	4.327053185189671	7.403400540345567	7.456034128851612
O	1.3419733417373534	6.605083334315947	11.010737514173401
O	2.467002407375547	6.375511890676847	10.211592451363234
O	5.2692777525609475	10.135234901220178	5.395291228516929
O	5.972013135196802	5.167974828129084	8.802859745530883
O	4.060894101779071	8.585040615918373	6.8951559907553985
O	5.137137680610191	8.99114546721361	6.221684948573327
O	7.809386227235287	6.249569523575552	7.825052079416592
O	8.275230152266218	7.167589768335217	6.979594854123254
O	7.512210545605984	8.166735686335574	6.465765089181753
O	6.178673320511645	8.252735842186716	6.699605666705503
O	5.679147743645027	7.2102646576648874	7.475048814994809
O	6.489772988368298	6.243764814272213	8.053699215649495
