22

O	4.259266213239994	7.787901547775966	8.164831156577971
O	7.999850441079956	7.321294633910863	6.85702497331323
O	0.6026307571023537	7.2953218843921785	7.970554202046447
O	6.1285728228292475	6.417775289889805	7.813954196361097
O	1.9033077637998055	7.0958516273578045	8.425882883255845
O	2.928093975787154	7.756791244313884	7.759553905749289
O	5.410358265466018	7.509207282140636	7.442443568127238
O	5.933067943459096	8.485798800125533	6.637097739737457
O	5.230640098783526	9.524505539185071	6.084002059831885
O	5.516102071422978	10.063038423684759	4.8185074548480245
O	4.397393173847676	11.66666786567977	3.0997646985882468
O	3.0985984070443227	11.799511281700987	2.362678932706216
O	4.550721999481927	10.964766359521398	4.340106074079752
O	6.845433573610543	9.922416023806155	4.4986839923140725
O	7.722304295433666	9.143016970462329	5.24860365922602
O	7.28573181575485	8.349649505960551	6.3431637009126085
O	7.436233478625903	6.338891754111484	7.560261302900361
O	2.6531222379189736	8.786495277799132	6.8637839847997535
O	1.4079898755234028	8.932853141962784	6.341640411008151
O	0.45288320726044695	8.195000921565665	6.954918355010783
O	3.110718787516843	12.932820857590615	1.383847176459171
O	5.508154392731273	11.70095235558286	2.4723893053482975
