86

O	0.04919939134714291	0.16739117234285728	-0.7180556845301592
O	-1.841649911652857	-2.0391529778571424	2.3322082443698404
O	1.6359789283471429	3.3865063421428574	-2.0697338656301594
O	-1.6583148216528572	-0.031374941857142735	1.039726584369841
O	0.676038418347143	2.4353288221428575	-1.6889692906301592
O	0.931016758347143	1.1339713901428572	-1.2212548106301593
O	-0.6163182251528571	-0.49900369785714277	0.2833076133698408
O	-0.3671590286528571	-1.8478236378571427	0.5652243743698407
O	0.636673218347143	-2.4203614078571425	-0.12603006663015925
O	1.5996589583471432	-3.3130328278571426	0.1656223833698407
O	3.8176051483471434	-2.8638568478571425	-1.0695576156301594
O	5.3060339183471426	-3.0080208678571427	-1.1688403616301593
O	2.8819153683471432	-3.5890175478571424	-0.31185440063015923
O	1.073565218347143	-4.1661808278571435	1.1486999443698407
O	0.13157011034714294	-3.5913893678571425	1.8989895343698406
O	-0.872644095652857	-2.6079695978571427	1.6397134343698405
O	-2.310753371652857	-0.8158193378571426	1.9400028843698407
O	2.040638068347143	0.7113109901428573	-1.9928952856301594
O	2.977815798347143	1.5965256721428573	-2.531095425630159
O	2.759485178347143	2.961536662142857	-2.5581639856301592
O	5.722772198347142	-4.460686177857143	-0.8012063606301593
O	3.274303498347143	-2.2021364978571425	-1.9596152956301593
O	1.3014406883471428	5.214145242142857	-2.3048408056301595
O	-11.764327531652857	-6.691639747857143	-4.658147885630159
O	-8.801513761652858	-11.088940327857143	-1.4289875936301593
O	-5.369406271652857	-10.300588727857143	-2.8967901156301594
O	-2.5956280416528568	-9.363481397857143	-0.46629864863015924
O	0.34716957634714296	-8.709696397857144	-2.734505995630159
O	1.320659228347143	-9.584105227857144	-6.3033647756301585
O	4.316469438347142	-7.810062267857143	-7.810696245630159
O	5.222300298347142	-7.5839556478571435	-11.48648647563016
O	3.895643428347143	-4.073755507857143	-12.14385347563016
O	0.5492439783471429	-4.926702687857143	-10.54861393563016
O	-1.288270696652857	-6.312417227857143	-7.498304555630159
O	-2.837252711652857	-5.388535127857143	-4.229339925630159
O	-6.171220761652857	-6.291208987857143	-2.932873315630159
O	-8.122326831652856	-5.907022007857143	0.26389239236984074
O	-11.604223231652858	-4.777069617857143	-0.7428276576301592
O	-10.045821101652857	-0.2827628678571427	1.5243358243698406
O	-6.863285271652857	-1.2825828678571427	-0.0968066566301593
O	-6.790974491652857	-1.4858875378571426	-3.9011531856301596
O	-3.702536281652857	-1.3608411478571427	-6.102305965630159
O	-3.779267691652857	-2.5840368278571426	-9.67084364563016
O	-1.501669607652857	-1.8384412378571429	-12.64075157563016
O	-0.8065230246528571	-4.561855627857143	-15.20825577563016
O	2.097871618347143	4.429301622142857	-12.25837717563016
O	2.415630908347143	7.862593972142857	-7.387060495630159
O	-1.079086239652857	9.357389182142857	-6.835887165630159
O	-0.22858229465285707	12.803769172142857	-8.19300550563016
O	1.8246509983471428	13.337683672142857	-5.029444935630159
O	-0.543012460622857	11.609782572142857	-2.573576285630159
O	-1.2363180756528571	6.214136032142857	4.285616344369841
O	-4.182185851652857	8.212377012142857	2.887863504369841
O	-5.171467021652857	8.080462652142858	-0.8091504326301593
O	-8.975167241652857	7.701417492142857	-1.0085981736301592
O	-5.373478321652858	3.1779254921428572	-6.726532825630159
O	-7.5235392016528575	3.1951151521428574	-3.5770912256301592
O	-6.027094691652858	3.9489400421428575	-0.16205384163015923
O	-6.905969521652858	3.4043372321428573	3.485929374369841
O	-6.377455371652857	-0.2701682138571427	4.566868714369841
O	-4.899971671652858	-4.444249677857143	8.63002816436984
O	-1.478864888652857	-5.678297857857143	9.80326682436984
O	0.567622358347143	-5.3724445378571435	6.584510524369841
O	4.137352798347143	-4.109021747857143	6.5146090043698415
O	6.065587698347143	-3.2414404978571425	9.66803682436984
O	6.3647663583471425	-8.649240517857143	8.26162045436984
O	10.920282168347143	10.030740672142857	0.49483321436984073
O	13.053920768347142	4.865865982142857	0.3802789743698408
O	12.184160168347143	4.997031942142857	4.069169494369841
O	12.519723068347142	1.4750019121428573	5.524465354369841
O	10.429894668347142	-1.0234601278571427	7.557496474369841
O	9.210572618347143	-2.6429786978571426	4.384692334369841
O	7.631475688347143	0.7018344341428573	3.4830529543698403
O	5.832208728347142	1.3098866621428573	6.740273384369841
O	2.334986258347143	-0.07230964785714272	7.414356254369841
O	0.748014818347143	-1.2296818578571427	10.64816492436984
O	-2.919876571652857	-0.9111176578571427	11.55495682436984
O	0.03298290734714293	-0.6318409688571427	16.77972592436984
O	-0.581628769552857	2.3976465121428574	14.55814082436984
O	2.211825608347143	2.9732815921428575	11.99053522436984
O	2.089332828347143	4.932155112142857	8.739005464369841
O	4.5935543283471425	5.895984302142857	6.041891044369841
O	4.103217818347143	4.661034022142857	2.4765723043698404
O	6.136447048347143	3.5302933621428574	-0.6568061239301592
O	6.103686938347143	2.9234461321428573	-4.601431815630159
O	6.286690388347143	6.452407092142857	-5.993965515630159
