83

O	-0.8743230583758068	1.7570005566838707	4.758970450822581
O	1.2225871396241932	-1.4030138433161292	-2.6598937891774197
O	0.8090073996241933	-1.4782454033161292	-3.9534576591774195
O	-0.4317787193758069	-1.1887370333161293	-4.329448729177419
O	-1.2771597587758068	-0.7774627703161293	-3.3937559091774196
O	-0.9063522093758068	-0.6804580873161292	-2.1134747591774197
O	0.3454655496241932	-0.9999064833161293	-1.6695585191774196
O	1.0094033596241931	-0.9415785123161293	-0.44664081117741955
O	2.219667469624193	-1.4471872133161292	-0.7566368211774196
O	2.3624871896241935	-1.7586947133161293	-2.0163480291774194
O	0.5066348196241932	-0.4920286183161294	0.8593539908225803
O	-0.6129776733758069	0.18920930168387068	1.1309673208225806
O	-0.9199192863758069	0.8602494306838707	2.3219856008225803
O	-0.10004273037580691	1.1638165866838708	3.2971924608225804
O	0.9373438696241931	0.31812756668387066	3.1823902308225804
O	1.3232639496241931	-0.33587820931612933	1.9826072208225805
O	3.5064510996241927	-2.1923673333161293	-2.7818670191774197
O	4.815277489624193	-2.1832096233161296	-2.0681095191774195
O	3.457077139624193	-3.6034826133161295	-3.2878564191774196
O	3.532894989624193	-1.4764767433161292	-4.13030031917742
O	-1.884163167375807	-0.3329170173161293	-1.1754244361774195
O	3.3239076696241927	10.907620466683872	-6.10011380917742
O	3.5124387196241926	9.597872726683871	-9.703549849177419
O	5.873494609624193	6.595076626683871	-9.758862549177419
O	7.540814219624193	4.692598356683871	-6.903704059177419
O	6.717681399624193	1.0523251266838707	-6.494238379177419
O	8.670946599624195	-0.033513911716129316	-3.4204358891774196
O	11.786504789624194	1.3257315266838707	-1.6525507491774194
O	12.626843789624195	-0.17141184631612932	1.7380766608225802
O	12.146643689624193	2.7478176066838707	6.66809865082258
O	10.457625989624194	4.453743046683871	3.73030432082258
O	8.998926689624193	4.155779546683871	0.23083657382258038
O	5.773322379624193	3.3299614766838705	-1.5910745591774194
O	4.372867909624193	5.373408236683871	-4.41988364917742
O	1.488787759624193	5.076198546683871	-6.8427168091774195
O	-0.19074692037580676	8.467956966683872	-6.928920169177419
O	-3.302285910375807	10.609354266683871	-7.05515196917742
O	-8.763449420375807	9.06731361668387	-6.908733689177419
O	-5.7280378603758075	6.860897526683871	-7.635190189177419
O	-4.039835310375807	5.903030486683871	-4.407305959177419
O	-1.0945598353758068	4.233702596683871	-2.77992725917742
O	1.221238569624193	6.424147126683871	-0.7585570351774196
O	3.6804362796241925	5.309252986683871	1.8710608808225802
O	6.514528359624193	7.443855696683871	3.01894851082258
O	8.591536859624194	7.378662556683871	6.2111978808225805
O	12.272744489624193	8.34276548668387	6.065497720822581
O	1.9850225496241933	5.835344106683871	12.68783100082258
O	0.3135006296241931	1.1654798266838706	11.525767000822581
O	-2.4833991203758066	3.6450842766838707	10.84451770082258
O	-3.8141188603758067	3.7735597766838707	14.40799160082258
O	-5.108622450375807	0.2449369086838707	13.833601200822581
O	-6.179643380375807	0.6457356226838707	10.19678450082258
O	-8.574350050375807	-5.676444723316129	3.98591617082258
O	-6.694141440375807	-2.8995523533161296	2.2718494808225804
O	-8.391268350375807	0.3361621756838707	3.2736252808225803
O	-6.7174667803758075	3.3888594166838706	4.819022730822581
O	-7.924067320375807	6.558494756683871	3.0448130408225804
O	0.06143404962419319	7.273747036683871	4.639876030822581
O	-2.663812610375807	7.004097666683871	1.9611082108225801
O	-4.5518372003758065	3.7325429166838706	1.2165147608225806
O	-6.561816270375807	2.2053201066838706	-1.6345735391774197
O	-4.420460940375807	1.2062569366838707	-4.676324089177419
O	-2.8332653803758068	-2.4828214233161296	-9.148712919177418
O	-1.1647677040758069	-5.895563313316129	-9.221025849177419
O	1.197427589624193	-5.625062833316129	-6.30600002917742
O	1.8525331996241932	-8.39720977331613	-3.7977433291774196
O	0.3077940696241932	-11.85859703331613	-4.254404269177419
O	-0.002040340375806915	-13.503568833316129	7.2766730608225805
O	1.9181478696241931	-14.565516633316129	4.1393865408225805
O	4.114367009624193	-11.143027533316129	0.5703105008225805
O	1.509689019624193	-9.387518463316129	2.73141927082258
O	-1.4678643583758069	-9.97463243331613	0.46052521082258047
O	-2.258039110375807	-7.464558573316129	-2.3077966391774196
O	-3.8866219403758064	-8.16232033331613	-5.661196259177419
O	-6.146996960375807	-5.795626183316129	-7.519196209177419
O	-8.018035940375807	-11.306557533316129	-9.18000105917742
O	-9.227943640375806	-9.490629783316129	-6.055887689177419
O	-7.059677260375807	-10.22813603331613	-2.9964220191774196
O	-6.802707450375807	-8.215140743316129	0.1926486128225804
O	-5.027623430375807	-8.70995875331613	3.4976547308225805
O	-2.4073698003758066	-6.266634853316129	4.57545261082258
O	1.0133523296241933	-5.694614743316129	6.3679677208225804
O	3.6623142596241927	-3.4160754933161295	8.06492230082258
