84

O	2.9631605595525428	4.790831041237288	-3.4824519520169495
O	2.8290348295525427	4.953390611237288	-1.2893154850169493
O	4.412638109552543	3.3478631712372877	-2.562134392016949
O	-2.5784649804474573	-1.4127025887627123	2.496705117983051
O	-1.259526890447457	-1.420916368762712	2.0448654879830506
O	-0.9643561044474569	2.548292181237288	2.214644817983051
O	-1.234122175447457	2.728232071237288	0.8435015979830507
O	-3.0757191904474572	-0.1929364487627121	2.7362680879830505
O	-1.986858850447457	1.860002282237288	2.8581045779830507
O	-1.030398256447457	-0.5689676287627119	0.9543975079830507
O	-1.031887557447457	1.3123849752372878	-1.2500719700169494
O	-1.206777781447457	1.546522655637288	0.1730385179830507
O	0.40034893955254297	1.661555470237288	-1.5216790520169492
O	-2.4987681304474574	0.8483150382372879	2.1001558979830506
O	-1.795053660447457	0.5355590632372879	0.9322535379830508
O	3.0544064095525427	3.8862295112372878	-2.2989639220169495
O	0.007504814552542982	-1.351647778762712	-2.053882272016949
O	1.040512299552543	2.8188095512372877	-1.3409801970169493
O	2.136135789552543	2.8248223112372877	-2.1001624220169495
O	2.1343377295525428	-1.219376938762712	-3.034178642016949
O	3.142674939552543	-0.4684215187627121	-3.4745099720169494
O	3.2935971895525427	0.8429128962372879	-3.1549211120169494
O	2.3680459695525427	1.5234155415372879	-2.4333464020169493
O	1.253716709552543	0.7614442222372879	-2.0938555220169492
O	1.156556899552543	-0.5964327587627123	-2.363673232016949
O	9.320646899552543	-3.938242818762712	7.012353897983051
O	12.229049879552543	-3.8291742187627125	4.516397727983051
O	12.427863879552543	-0.3021302487627122	3.0477253279830507
O	10.037513779552542	2.657375901237288	3.4423017879830504
O	8.447070659552542	4.006441041237288	0.33366504798305074
O	6.2189838695525435	6.814035021237288	1.5922901779830507
O	6.181333579552543	9.011867821237288	4.73120221798305
O	3.054368739552543	11.136378331237289	5.241523777983051
O	-0.701283826447457	10.183983221237288	9.482783317983051
O	1.720721989552543	7.325963731237287	8.94742791798305
O	4.153102319552543	5.5876444612372875	6.6082266479830505
O	4.271750979552543	3.007246291237288	3.8504713279830507
O	6.797750809552543	0.20947876123728792	3.7111749079830507
O	7.743384389552543	-2.493152088762712	1.2341427779830507
O	8.029927859552542	-5.684674058762711	3.238040707983051
O	7.468889229552543	-9.38826664876271	3.6148110579830504
O	4.827827619552544	-13.020493848762712	0.16311928798305075
O	6.103015649552543	-9.528613648762711	-0.6667923730169493
O	3.657987699552543	-6.932023998762711	0.6064391679830508
O	2.928284379552543	-3.299798288762712	1.1819818879830506
O	2.6523057795525427	-2.207431078762712	4.810752647983051
O	0.907166979552543	0.9486475342372879	5.961956217983051
O	1.599240879552543	2.352241785237288	9.39609861798305
O	-0.423040190047457	4.7303226012372885	11.56753621798305
O	1.369575659552543	7.219045301237287	13.81049801798305
O	-10.006626160447457	2.310638785237288	5.432922467983051
O	-9.802151610447458	-1.4595143987627122	5.9530806079830505
O	-14.353647120447457	-1.209840258762712	3.3939802479830505
O	-11.454083120447457	-3.0363524887627125	1.7234667779830506
O	-12.931008120447457	-6.155319858762713	3.320843167983051
O	-8.544558120447457	-2.836197918762712	-6.9221650620169495
O	-5.548955690447457	-3.0642961487627125	-4.6208869320169494
O	-6.263805870447457	-6.0555492987627115	-2.405556932016949
O	-6.182486270447456	-6.019934528762713	1.396989487983051
O	-4.214713270447457	-9.010884848762712	2.681708057983051
O	-0.584325743447457	-1.999163838762712	10.46997571798305
O	-2.390307760447457	-2.500113118762712	7.215446507983049
O	-1.104525761447457	-5.2014507787627124	4.79796141798305
O	-2.077178770447457	-5.013161068762711	1.0121967879830507
O	-0.708705023447457	-6.3718960787627115	-2.2471077620169493
O	2.553061579552543	-4.874763298762712	-3.467980082016949
O	6.125848569552543	-2.5302062987627125	-7.6938839320169485
O	5.919146569552543	0.6551367192372879	-9.78148864201695
O	4.368382419552543	3.077642391237288	-7.35475565201695
O	1.6444655895525429	5.597032761237289	-8.256644702016949
O	-10.262161790447458	8.974033671237288	-8.255792852016949
O	-2.116413930447457	9.771461791237288	-7.536319172016949
O	-4.524653190447457	7.115126181237288	-6.255859642016949
O	-3.8553594804474574	4.550947201237288	-8.967983522016949
O	-1.030605985447457	2.015177583237288	-8.52373242201695
O	1.095985889552543	0.3598946512372878	-11.19246218201695
O	2.472161319552543	-3.148920498762712	-11.02207558201695
O	-1.035613546447457	-3.4029332087627124	-14.60905878201695
O	-3.072670310447457	-0.5997931687627123	-12.99766648201695
O	-5.218607230447457	-0.8097926587627122	-9.87878375201695
O	-7.5467887404474565	1.5755316372372878	-8.063733662016949
O	-6.710816290447457	2.592009551237288	-4.499011672016949
O	-6.906684180447456	5.465193711237288	-1.9477278020169493
O	-6.755038340447457	6.673586271237287	1.6659776579830505
