87

O	4.739189165174138	-2.2601629107068955	4.707947215672413
O	4.430054315174138	-1.0895656307068955	5.471370935672414
O	3.4217838851741376	-0.23588048870689549	4.756953775672414
O	4.2533893551741375	-2.7855532607068954	3.343465185672414
O	3.2143016151741377	-1.9104356007068954	2.804664935672414
O	2.6733984551741377	-1.2260491507068954	3.965958945672414
O	1.3295667151741373	-1.2813627007068955	4.312891185672414
O	0.4907154541741375	-0.9416507707068955	3.211630955672414
O	0.8203047751741375	-1.7307439107068956	2.0900800556724137
O	2.1470022651741374	-2.2093371907068953	1.9077405456724137
O	0.8988742851741374	0.2898827672931045	2.704952995672414
O	-0.08930839782586258	1.3136041012931046	2.828097685672414
O	-0.7599680668258626	1.5889156712931045	4.121889795672414
O	-1.5177662748258627	2.9073040892931044	3.966040275672414
O	-2.7250576648258624	2.7917527592931046	3.092380985672414
O	-2.5003872848258624	1.6860075392931044	2.125334615672414
O	-1.0740232018258626	1.4593086092931045	1.7256813856724138
O	-3.292162444825862	4.040670089293105	2.5312424656724137
O	-3.1487138248258626	4.206943139293104	1.0528644556724138
O	-3.9625985048258623	3.3318126592931043	0.2666208286724137
O	2.2124554751741377	-2.3779938107068954	0.5285433166724137
O	1.0775481251741374	-2.1498477207068953	-0.20818667232758628
O	0.003108578174137455	-1.1774532907068955	-0.10404707232758628
O	-0.48225674582586253	-1.2067082507068954	-1.5133418343275862
O	0.1500231271741374	-2.1954603707068956	-2.287120734327586
O	1.1899178851741374	-2.6308566907068953	-1.5088725343275864
O	-1.8442090448258626	-0.7611567607068954	-1.8424030443275863
O	-2.3202124248258627	0.6292418574931046	-1.9023769743275862
O	-2.6631910748258623	-0.19776992870689547	-0.7607739413275862
O	-1.6734622548258626	-13.479512570706895	5.211665085672413
O	-0.3470716109258626	-10.771112770706894	7.538947125672413
O	-1.7173268148258627	-7.291384640706896	8.332340365672414
O	0.46475914517413747	-4.318355930706895	7.3799666956724135
O	-1.5970439748258627	-1.2896353207068956	8.374235115672413
O	-4.456042074825862	-0.6597246507068955	10.742129385672413
O	-6.239314794825862	2.6558747892931045	10.580906485672413
O	-9.646335304825863	3.4260039692931046	12.085381685672413
O	-10.169060684825862	-0.2284769367068955	8.079623745672414
O	-6.9975981348258625	-2.2719714807068954	7.599433745672414
O	-4.4326518448258625	-3.3548913307068955	5.088768715672414
O	-3.2788093148258626	-6.899897020706895	4.5699582756724135
O	-0.5831673668258626	-8.562911470706895	2.499556125672414
O	-2.2224341948258624	-11.554057670706895	0.8909136516724138
O	0.48860104417413747	-11.672721070706896	-4.231569864327587
O	-1.6929782948258627	-8.673233940706895	-3.467417734327586
O	-2.5231869248258625	-5.855643610706895	-1.0857850443275863
O	-5.947325944825862	-6.066083080706896	0.5098766366724137
O	-7.731991064825863	-3.1214149807068954	2.075260495672414
O	-10.591660434825862	-3.682251340706895	4.492987355672414
O	-13.433235634825863	-1.4122426707068954	5.622294095672413
O	-14.728416434825862	-1.5869767307068954	9.206418035672414
O	-12.160815134825862	2.3391535792931046	-6.291907474327586
O	-9.019975484825862	3.6465357992931047	-9.677391144327586
O	-0.8249831598258626	1.6598083292931045	-7.827480974327586
O	-3.1285940448258622	-0.5792221407068954	-9.811101584327586
O	-6.542846314825862	-1.8009929607068953	-8.690797334327586
O	-7.474531644825863	-5.4934819507068955	-3.947034534327586
O	-4.494524994825863	-3.6345850307068956	-5.448509324327587
O	-0.9913444778258627	-4.554936010706895	-6.597253264327587
O	1.4847125251741373	-5.195061000706895	-3.663120894327586
O	6.871448695174138	-4.787697630706896	-1.1471289643275864
O	8.639175365174138	-1.8096466007068956	0.5399592796724138
O	5.709594965174138	0.12523735429310456	2.045994135672414
O	5.455857165174137	3.9370607392931047	1.9377481656724138
O	8.229306055174138	6.1215476092931045	0.5304555376724137
O	8.159216295174138	7.976606759293105	3.852265205672414
O	8.911777915174138	4.8682431792931045	5.924427535672414
O	11.450855665174137	3.7891237292931046	3.298059805672414
O	0.5351137721741375	14.146047529293105	-2.991691414327586
O	3.1472570151741377	13.472654629293105	-0.27047715132758626
O	5.776305665174138	10.841605329293104	0.6077089126724137
O	3.2768156051741375	9.025471909293104	2.864465155672414
O	1.1071784351741374	8.467763609293105	-0.2235796403275863
O	3.861205395174138	7.099783849293104	-2.475190214327586
O	4.6088810451741375	3.3471697692931044	-2.4203307243275862
O	7.903538485174138	1.6103684462931045	-3.082423784327586
O	8.350376185174138	-1.7469591707068957	-4.7393210343275864
O	11.329475165174138	-3.8353983307068957	-5.873264054327587
O	14.331530565174138	-2.1307471707068957	-7.462403294327586
O	13.373477465174137	1.3023812832931045	-6.111916344327587
O	10.138519765174138	1.5016487002931045	-8.120814034327587
O	7.8037448951741375	4.262559039293105	-6.883576124327586
O	4.084413125174137	4.593688809293105	-7.477605664327586
O	1.4553598651741373	7.208054869293104	-6.655793684327587
O	-1.4414858448258627	6.219355169293104	-4.370418614327587
O	-3.8013744848258626	7.626400689293105	-1.6976051343275862
O	-7.058908594825862	7.051077749293105	0.26116248967241373
