17

O	4.68246666774356	6.6299512168762575	7.740901415014999
O	4.548277713395247	12.292947286161109	3.1470557595837017
O	2.4773315457519005	11.617552893277338	3.751720192897163
O	5.401762329603336	11.32321249626988	4.0368021732728145
O	3.3727138875915883	11.053933342569735	4.789980734330085
O	4.876919681181767	9.877106626247835	6.203731738722865
O	4.575990472287463	10.344994964796298	4.864521526817903
O	6.62805486302102	4.931767508941757	8.754651060291938
O	4.351850098972643	7.857591913976229	7.732201816801428
O	3.3216649752047482	11.855289056019554	2.6122988928626016
O	5.069016288159625	8.57377516454791	6.710114172770718
O	8.251710806747132	6.311630686936009	7.571763650165434
O	8.466145801312678	7.35344103308012	6.7724940163112475
O	7.5253604147097315	8.263564247746071	6.440990248931881
O	6.264822945711767	7.977789805122457	6.84858610099122
O	6.016123073624071	6.872700399284719	7.6127099651149335
O	7.021684588085607	6.07441663515852	7.998050733602096
