31

O	-0.014574978199358934	10.011460841393655	5.8769814668017535
O	-1.8723900192889729	11.69741977706586	5.138087810695985
O	-4.054277510700109	11.099617201948586	3.98901301698207
O	1.6331631014019636	11.837453885228172	5.453370932061768
O	1.5581506494925996	10.467497664080378	5.7897502067919335
O	3.098119119278743	11.888301292186814	5.039250890478433
O	3.7847801530153085	11.352999282156786	6.141785102798931
O	3.1426374081802884	10.847664796107614	3.9256354660668515
O	3.196012791126669	11.588715008795994	2.7337051337266365
O	4.441059034657622	10.164537140461881	4.247674155186438
O	5.400557424231493	10.861622413556614	3.489764286533049
O	4.593955707707794	10.333735729554437	5.722474012124207
O	7.59489125524305	6.587388240329965	7.793348255306944
O	-0.45962351262174694	9.425425591280923	4.574350450579489
O	-2.3932756941367095	13.024050546145347	4.869793782872624
O	-4.66652283676399	13.018784592614075	4.341013925161853
O	7.9395154963956465	7.637517511134036	7.0340719240964376
O	-0.31268458798109666	8.90852211387645	7.060501116960152
O	-1.2231314535875883	11.234414229778935	3.6900875818892462
O	-3.1779659842709314	11.11230106437882	2.7832835995762197
O	7.044499682535008	8.537323117773875	6.559658950407092
O	-0.8286889144225666	11.416301978817351	6.341905455420006
O	-3.185692701540559	10.70457034311926	5.429570224191041
O	-5.132518142182985	9.920686310469373	3.963241010214425
O	5.727907087369628	8.427613642576082	6.841964942063133
O	5.401677743901049	7.368696646972156	7.6784917134487864
O	6.308549360651462	6.407766330957244	8.09906075739437
O	5.966156552420484	5.301469702900686	8.905610355583926
O	4.0838266689993485	7.378892141686061	7.812000264045399
O	3.616323836191404	8.43951636777819	7.099759130788862
O	4.611923936667834	9.133563734708446	6.509815935346332
