33

O	4.698386922126968	10.848051046096785	4.564330369578793
O	6.015963377583926	5.168553210442236	8.663001605785542
O	-0.361369793534831	3.4999504398448353	8.31263821487216
O	6.996862107020108	10.40080314347513	5.221974598876802
O	7.6993296667421465	6.046408193742931	7.409720672291378
O	-4.321422556094095	1.1469092485101648	9.29986465114383
O	7.467125674397929	7.9234300709908805	6.283120126990046
O	-4.169675854485923	0.2709921372414472	8.204971724518401
O	4.097902121152926	8.5492848694245	6.4241661153352725
O	-3.1620382114249868	1.9740531168005764	9.528063956979077
O	-0.877367269879306	5.608359072222148	8.90582979942135
O	1.9148673700170193	7.741401318494722	8.065161432295472
O	-2.56002541547151	3.9921314540370267	8.476277856020426
O	2.8637561882635465	5.676634577529233	8.429943796609148
O	5.269156334929397	9.001073259153554	6.141749607423381
O	0.6556956722231644	7.227708564203915	8.159230340916872
O	1.6121693356403655	5.245066509501216	8.903388947341965
O	-2.455235659260782	1.6576040068744495	7.495021372112018
O	8.329486515651194	7.067370055742318	6.98091986289963
O	3.098264114123999	6.99399306422481	8.149499860112964
O	0.49615324454833254	6.031158731444313	8.804224826088468
O	-3.130200202964187	0.4842847337249516	7.295160440294943
O	-2.912299360994955	2.6414877067000986	8.322676847843354
O	5.495818436329694	7.2952162658855055	7.49605401984634
O	4.204563358726801	7.59125260010865	7.378821856221171
O	6.393072086152691	6.225270157658156	7.915442373869582
O	6.17677203179292	8.235830686503775	6.719230010380067
O	5.580012490479916	10.29797757158796	5.6218672033303765
O	-1.2283911360005262	4.382304236423049	8.338863864646896
O	-2.9548709932510464	-0.7186974111608295	6.496077420415999
O	-4.185025892316008	-1.0178138815458793	5.908856721380634
O	-2.0833304589831307	-0.7904765872194242	5.501682192189428
O	-2.6763610493762027	-1.8046110593096483	7.323120745638199
