80

O	3.2190194878620693	-2.515446273862069	-0.6471111976206894
O	3.7717297778620695	-1.541536603862069	0.1184593204793106
O	3.020611737862069	-0.6759441038620688	0.8106280043793106
O	1.647351257862069	-0.9350835338620689	0.7680806003793106
O	1.0995145478620691	-1.8905775838620689	-0.09223447262068937
O	1.899885177862069	-2.7292714438620687	-0.7513957226206894
O	3.254404507862069	0.3128296601379311	1.7230218463793106
O	2.096353587862069	0.8163162861379312	2.1034063463793102
O	1.131405537862069	-0.009142939862068822	1.6319274463793105
O	-0.2855068691379309	-2.123961283862069	-0.11732462562068938
O	-0.2945816421379309	0.2733416541379311	1.8410552263793105
O	-0.4677853751379309	1.6926229861379312	1.4899885463793106
O	-1.641514341137931	2.148010906137931	0.9426476113793106
O	-2.2135371521379312	3.321789506137931	1.2266874463793107
O	-1.355840315137931	4.028111606137931	2.0233046063793103
O	0.00030513386206909576	3.900849246137931	2.0848786563793102
O	0.505648857862069	2.695997596137931	1.6828230763793106
O	-3.638302072137931	3.6783051761379313	1.5341780563793106
O	4.506225037862069	0.8788926181379311	2.1311184263793104
O	5.123267227862069	0.27895246313793115	3.3635185963793104
O	4.376110707862069	2.314018896137931	2.58104855637931
O	5.560842537862069	0.5917201435379311	1.1177655763793106
O	2.990707497862069	5.268886036137932	-10.79010836362069
O	6.3177830278620695	3.436727866137931	-11.328532263620689
O	8.50437382786207	4.015947416137931	-8.242292693620689
O	7.673505247862069	5.659572756137932	-4.888500853620689
O	7.972413057862068	3.561660176137931	-1.7986414636206893
O	6.8379317278620695	5.820394946137931	1.0538697263793106
O	6.677792027862069	9.59331604613793	1.5152717863793106
O	4.8410707278620695	10.86826687613793	4.576592526379311
O	-0.054501513137930946	13.787299576137931	4.246780276379311
O	0.893323487862069	12.06134517613793	0.9974527953793106
O	2.948135087862069	9.37597767613793	-0.7408938026206894
O	2.885596187862069	5.709266276137932	-1.6782669536206893
O	3.826909147862069	4.322632856137931	-5.0258254836206895
O	4.265686137862069	0.9308432021379311	-6.6226134936206895
O	2.4371874778620692	1.0371583561379312	-9.925890243620689
O	0.2218093078620691	-0.5720740038620689	-12.52505156362069
O	-2.405870242137931	-5.599927043862069	-12.432509463620688
O	0.45577166786206913	-4.414614123862069	-10.20606276362069
O	-0.885646663137931	-2.2191725338620687	-7.44028079362069
O	-0.07543143013793085	0.03986449813793114	-4.558618793620689
O	-1.078459917137931	3.666225246137931	-4.95843431362069
O	-1.5052466731379308	6.288259036137932	-2.3854841436206895
O	-1.5084636961379307	9.93429503613793	-2.8517142836206895
O	-2.903546412137931	12.82638147613793	-0.7903891246206893
O	-1.0708721581379308	16.15474007613793	-0.7640188246206894
O	-9.799104502137931	5.432643876137931	5.13502225637931
O	-11.41960632213793	3.982914516137931	2.0269143663793106
O	-14.255778622137932	1.523810536137931	5.68253889637931
O	-12.06257872213793	-0.5810763638620688	3.3833221263793103
O	-5.0255535321379305	-5.688322683862069	2.5026891163793104
O	-7.666434952137931	-5.163173803862069	-0.13793263862068939
O	-8.86929357213793	-1.8789617438620687	-1.5966005836206894
O	-9.019218822137931	-2.149317443862069	-5.40115543362069
O	-6.188932872137931	5.162975806137931	-3.2206101536206897
O	-5.463650812137931	1.8502138461379312	-4.95628146362069
O	-4.865525142137931	-1.3104934638620689	-2.8826221936206897
O	-3.321526672137931	-4.7784631338620684	-3.5656661036206896
O	0.48288874786206915	-4.732703903862069	-3.6972968036206897
O	5.948775687862069	-6.811329523862069	-2.2913969336206894
O	7.920754697862069	-7.012897563862069	0.9731025983793106
O	6.836926197862069	-3.815581333862069	2.69780098637931
O	5.988362967862069	-3.558247753862069	6.38744933637931
O	-2.373418982137931	-2.976542163862069	15.46433703637931
O	4.4734002278620695	-1.2206145138620688	11.309307536379311
O	0.862571177862069	-1.7294727338620688	10.21489293637931
O	1.236176627862069	-5.240460543862069	8.90007223637931
O	2.3167488878620692	-5.902853303862068	5.311979126379311
O	4.296073097862069	-8.840843703862069	3.9524025463793104
O	3.8331273078620693	-10.32493732386207	0.5105518813793106
O	5.258638697862069	-13.33723372386207	-1.3272141936206894
O	5.705031407862069	-14.925818723862069	3.9574864463793102
O	2.060773477862069	-13.87260442386207	3.6090121463793103
O	1.041266577862069	-11.260174623862069	6.205442336379311
O	-1.9156668021379308	-8.89741866386207	6.03862268637931
O	-3.440576852137931	-6.3651538238620695	8.409165726379312
O	-3.575608452137931	-2.723885843862069	7.33732616637931
O	-3.309612902137931	0.9293559921379311	8.602745126379311
O	-3.951384192137931	4.663395356137931	8.028755456379312
