23

O	2.366940469015447	7.039668747216275	8.393455543468981
O	6.378275225661737	7.323489569910604	7.137709780938819
O	-0.8142135162388482	5.01903317715891	9.104016516123613
O	4.689106445127434	6.233204363970633	8.438970799751868
O	0.4578422635811479	5.593577049969998	9.255606588717832
O	1.0702545927004952	6.507221184524205	8.379531541116446
O	3.6923344193001775	7.079678296230933	8.030889152558071
O	4.216395000046521	8.125900156416487	7.2616993691804295
O	3.3264466300156146	9.028667664143711	6.807481243092122
O	3.178283593895913	9.720694947434481	5.663623338880171
O	0.7134046112115286	10.084796024822086	5.001417933556336
O	-0.3296230611268949	10.354961250649877	3.959705613782167
O	2.105061794806273	10.278702111037617	4.967091845518293
O	4.468640376871561	9.940658324624303	5.156008219486665
O	5.349771669466232	9.010760619045943	5.529602086162466
O	5.510465116104158	8.221394708948441	6.710222172292566
O	5.9912948843148	6.42635510379981	8.094696855292208
O	-0.000539759500119974	7.326595550685926	7.946685851101117
O	-1.324886713886197	6.885561165323718	7.890468977576915
O	-1.7245207854011837	5.7013708583544265	8.481774224598423
O	0.1693297076437199	11.459685695226144	2.985184145738584
O	0.30124934820969385	9.915780298785682	6.153292450053731
O	-1.4386568222320144	3.5290323445960374	10.051340712275035
