31

O	5.400902643140818	5.394999240128079	8.948884109702309
O	5.990291687561095	6.464012486536099	8.274469107520499
O	-0.508701817780616	10.14571974780846	6.419041806256346
O	-0.3465203536248369	5.509557272947607	11.641169463206602
O	7.869112940218669	7.372806602640473	7.274102966789179
O	7.2837091309056285	6.411863013572351	7.980211496757878
O	3.6575472930862007	11.197245438355223	4.214076698549908
O	5.793961291671407	8.418891876513312	7.018837859857844
O	7.123999576542334	8.367580768527578	6.803031110522472
O	5.118784056157791	7.427714221445683	7.734709008326705
O	-0.09440757512464693	7.594400185596305	6.422908739241877
O	3.809700370274758	7.908898978360052	7.923000266941761
O	0.6819227129750192	11.353442149409261	4.970297913560387
O	2.775918312052316	7.25119075803931	8.718900157604061
O	4.9128033529189	9.312933070919314	6.506585448676791
O	1.6999069149645092	7.955487065273179	9.307216273392914
O	0.4273971216712793	7.44135650441775	9.637867426554246
O	0.4477401431201282	6.248816018709569	10.284246055863376
O	1.2451414747055811	5.4720134202920745	9.552924367582362
O	2.4300101573866755	5.932018983877572	8.907842543286142
O	3.7208376200660025	8.907733544171286	6.9593739260304455
O	2.5760825180428633	9.806401657836586	6.952672941090652
O	1.6086326065072363	9.360569115717947	5.938160432961833
O	0.9335663246686812	8.073775356232524	6.090777201025226
O	0.6064559985186992	10.515737627940133	6.056330637305232
O	-0.24452880518858056	11.798248281846035	4.007469468324735
O	0.3217524476331186	13.144116100869338	3.662212771541009
O	-1.4444067054175846	12.006905387041417	4.831286790434454
O	5.29377230526395	10.627716083949453	5.9814103719655005
O	4.933438569949601	10.995755050601424	4.636431968679037
O	3.4019772726199244	12.161476824334986	3.271724667364735
