46

O	2.2484951084556464	7.334866146333097	5.3412773910195295
O	2.7004254665727823	8.258236231382543	4.187912931799331
O	3.010011144770602	9.715883807237773	4.749886654462977
O	1.9461931477398529	9.731130025492934	5.900437759845554
O	2.113893996946051	8.448431116726116	6.601812760057413
O	3.4294351739839115	8.039381086411762	6.077417747347537
O	1.9479144550876444	10.191258030081642	3.7045297902466388
O	0.9844770045101665	10.961571444650342	4.260978653935547
O	4.695275541238862	8.17660557789711	5.656948349372773
O	5.752042815558929	7.612933970562514	5.049439745962069
O	6.00874316059251	8.953180648676884	5.688431742240963
O	6.711807755047813	8.006366480506074	6.379100161202886
O	8.046274374872308	7.624253284585768	5.847989530750883
O	7.847719022900151	6.204444233413309	5.861342134276077
O	6.447492388794501	6.458264360511139	5.703556775212496
O	5.705212795741448	7.734092764063233	7.399015273240086
O	6.698660220730161	8.670351723428672	7.5533484356863205
O	8.262378592160573	8.481478799732969	7.238479979664252
O	7.733712954202317	7.105275589982998	7.966340254298812
O	6.557879552559244	6.218524415448972	7.928156307238672
O	5.095102288275721	6.665575184688564	7.956995058745603
O	3.7030597049161083	6.358419251056662	8.456522842826367
O	2.447313038525533	6.098396685847857	8.490349728410893
O	1.4304284550958988	5.138938463735812	8.852271091593876
O	0.05546739986260252	5.020823421437429	9.321078824124854
O	-0.8124336728253987	6.268950765789803	9.015558064280658
O	-0.2898568143562579	6.245261605509397	7.642191263449195
O	1.068634150498891	5.569777138623353	7.739966335351187
O	0.7374874234598945	4.248980979481384	7.2251333814183205
O	-1.0873244471539876	4.255137427469366	8.74166246198416
O	-1.6416775128279582	3.603218135425551	9.797554661839483
O	-2.968474363940179	3.4207753942757226	9.27053551199207
O	-0.8977438093918761	2.4122998530908015	9.555369128766642
O	-3.110180243461582	4.778781016845342	8.576099412310006
O	-2.6173903204832962	4.51751802567671	7.108814318390227
O	-3.786614973630755	4.482825824256091	6.282311498887244
O	-3.840895304488951	2.9980954565811553	6.913739236172044
O	-2.8780645112778283	2.772320731352293	8.102279343473594
O	-4.4603687904157745	4.968580430909636	5.088495006749641
O	-5.4602532441891825	5.964047298145585	4.729695109437975
O	-6.8421850611365524	5.615508898239155	4.367142196749707
O	-7.608352261623535	6.892784355962458	3.9376140947510745
O	-7.274124054116024	7.049708740711672	2.5164700453593527
O	-5.957089870999653	7.567282243617628	2.7065637502242383
O	-5.213808447683001	6.939944865642043	3.7808227080727193
O	-7.408849091909133	5.728347372419547	2.0707015278529974
