37

O	-2.8495658864049482	-1.0472520934939977	6.557351243704063
O	-3.6479617204366814	-1.9460471126373644	8.377653334782444
O	-5.006104104679869	-1.331419024082905	6.66843423566446
O	3.9288689104659547	10.54034591155824	6.03614089898773
O	2.9661162634822924	10.32735306819958	6.9860900261053285
O	-4.400292724200361	4.743855665703499	11.645313736758519
O	-5.176329757592927	5.7226654567457	10.908604977220644
O	-4.1546442784642	3.6064109267185005	10.937005213025415
O	-0.31506249545133164	6.673368055295524	9.052762289580262
O	0.746565014142367	5.337107798972363	10.626197059736175
O	0.8596565990629759	7.3449444930170085	9.009627987725015
O	1.8763066069556924	5.472076346512225	9.908245443032214
O	5.013877953544458	9.734245744595096	6.195232286681481
O	2.7155689671225938	8.982355364482595	7.397617247559118
O	-4.409235670997964	5.071374123853709	9.157960717845635
O	-2.707701163727722	1.0094338315608757	8.361157000286257
O	-1.518731188278993	3.6785462139511593	9.218497780828429
O	-3.286122733704892	7.439990612387314	9.93324991394233
O	-4.773902574708663	1.494572542215323	8.405341857305464
O	-1.4335050899431827	4.775227444359229	10.07493324556625
O	-1.9583088643856605	2.5816022057904124	9.970307015032985
O	2.799340030326432	6.400821598225782	8.04414717706001
O	-0.9910588130746851	3.4037925560408238	8.152722862826506
O	-4.223767606891607	6.293248937828237	9.994173782542644
O	-0.4108059626167008	5.64614394376074	9.923781970251252
O	2.0176945146458003	6.685734342528898	9.241433423464136
O	-4.41248350335087	3.7463241873180557	9.578939900242668
O	-3.9327664579575403	0.45915168818620966	8.111576572287516
O	-2.9647970872192086	1.8652098752260926	9.31902990892119
O	-3.943227170336126	-0.8164988411789826	7.4770085634723324
O	-4.112663171537277	2.5070583183961466	8.90330336416002
O	5.023018502233206	6.315698011658014	8.357110216734066
O	6.149404454400565	6.781561309512436	7.7253871422365
O	6.323256023771114	8.078799972114139	7.452229781883305
O	5.1982993030009155	8.78661951682615	7.150839492112405
O	3.964348464543844	8.379724179227338	7.673059613699133
O	4.011391193579357	7.171048319344406	8.291293909421924
