27

O	4.057226337025877	7.935908697965287	8.246873680282569
O	7.892536476442752	7.143101825350081	7.094213337628389
O	0.6423029740757111	7.522159794843269	9.32808099408447
O	5.93241156314588	6.435721108612668	8.253293431013212
O	1.9524657726878965	7.187195983011289	9.003237917285237
O	2.6993584826639676	7.752196333905203	8.01233179540768
O	5.218714374761425	7.417496244344131	7.702201450718979
O	5.866260006771691	8.204184077309947	6.746160813820429
O	5.054461605591964	9.02406458127937	6.00305026010293
O	5.602455112235209	10.103880987194014	5.338873387834605
O	4.756268571775511	11.759378415693174	3.8247780991207354
O	3.8495551498594462	12.869751502535113	3.5185942685302836
O	4.670556013560352	11.165012418691635	5.085189961067169
O	6.960124109880201	10.255086567988508	5.368256777107763
O	7.681860471559678	9.08741243920428	5.594813302169809
O	7.263145376107646	8.226906323830711	6.651270194561986
O	7.261677482814436	6.346662481161493	7.99311146114113
O	2.058225303573617	8.624555247223853	7.1739994069509
O	0.6628714061208658	8.60783404222477	7.219068596803217
O	-0.03896876316644882	8.017931088638486	8.267464901407024
O	2.549577189589563	12.64238064607638	4.281655483528242
O	1.4952042810616697	12.501186562236782	3.209198110874449
O	5.834522016302579	11.716027826855726	3.208241967280296
O	1.382531303372442	13.76140757434714	2.535588192252865
O	1.1404192837822045	13.499920061425804	1.1450778448398085
O	2.538192958467821	14.609542250715297	2.5868812803137793
O	-0.032078845551814616	6.245890533629547	10.623813108589506
