37

O	0.1466339622093454	8.332113927128288	5.3581154734961025
O	-1.5800590000931274	7.629503408152976	5.862408182740275
O	-0.7912298593311183	8.43498074191184	7.008387546323711
O	0.4807420620814712	8.087439908013526	7.706930318766234
O	1.982839990686691	7.675087056802358	7.1735428151914125
O	0.7929143961483262	7.036081291527506	6.175552838920304
O	2.978779204788641	7.4109653076225595	7.875478506165097
O	3.4936848948484687	6.727496958294056	8.935618223994787
O	3.6245688043532107	5.9188667960621775	7.68556258998145
O	4.955875445926754	6.044969489328265	7.309672222546283
O	5.169420330548462	7.197651001271574	6.531332807784652
O	4.286976321588394	8.009294466633165	7.395091338218999
O	2.3390265287602374	5.170615345247075	8.017556853723008
O	1.4571807055207004	4.58136753015552	8.844584968981453
O	-0.06421940368350001	4.994457182148757	8.7087643235842
O	-1.2683719998069782	4.316447388291918	9.245302549071534
O	-2.033445264406605	3.235429607481109	8.270080078581119
O	-0.9714112101101066	2.5602833460460923	8.270635382205677
O	0.18436785079485493	3.313358580340976	8.850369609506982
O	-0.03015578859133175	2.073891647112929	9.39491853662225
O	-2.075506499904744	3.3600915486189784	9.862230497667671
O	-3.2071426729643844	2.6958878308178145	9.361301315411673
O	-2.6102812592572215	1.4184908089848414	9.61972405889906
O	-3.9398381459122853	0.9933757624437383	9.406818903800387
O	-3.7620421267838355	0.47009823946104223	7.936235200826093
O	-2.963078917966406	-0.7414291306159173	7.8553091547308584
O	-2.897143097133281	-1.0992493481293404	9.244474665227754
O	-2.4001169792762926	0.18097067329288086	9.978066846138383
O	-3.463552436434051	2.7213799660906686	7.964574790875626
O	-3.8717035175051175	-1.6620524575104052	6.997219020583264
O	-5.256648918957761	-1.3907688143201526	7.049130456865705
O	-5.853874360473494	-0.2257611578814962	6.548844405262089
O	-6.3718287495690875	-0.5940748144414418	5.249486453295298
O	-6.73682229307373	-1.9254433329312453	5.071768502836462
O	-7.371507982110021	-2.0002623498921692	6.42298038910462
O	-6.219829044527006	-2.3220279831388164	7.246014022026193
O	-6.181941377930793	-3.1777423118022	5.144367533093977
