81

O	-1.6700261156909093	-3.632454974361818	3.8097144306200006
O	-1.0175914936909094	-2.628708684361818	2.9509745106200005
O	0.07685552030909049	-3.015843044361818	2.1844004706200004
O	0.40776537430909043	-2.1468534343618177	1.1503555906200003
O	-0.16605013369090948	-0.8961406843618179	1.2763485606200002
O	-1.5109214906909094	-0.7550626043618179	1.6266677706200006
O	-1.7016663256909097	-1.5249426543618179	2.6797590306200005
O	-2.2954310456909095	0.34267118745218217	1.0432967406200002
O	0.3576072533090905	0.2796082043381822	0.8778989106200003
O	-0.1322257416909095	0.6736426936381821	-0.40105090637999974
O	-0.7290239336909095	1.9367204856381823	-0.5845110993799998
O	-0.7665112916909095	2.575942835638182	-1.8206947253799997
O	0.1487772233090905	2.265526545638182	-2.73501342938
O	0.9360637443090906	1.249895501638182	-2.4130196693799997
O	0.7395439343090905	0.3168886339381822	-1.3894315193799998
O	1.6069048943090904	0.6122156716381821	-3.4512700893799995
O	2.9934311543090906	0.5769448726381822	-3.2628810893799995
O	3.65646973430909	-0.5503318623618179	-3.6250140193799996
O	4.487101104309091	-0.6564049133618178	-4.73771936938
O	5.199540084309091	0.44946950063818214	-5.07402173938
O	4.5455960243090905	1.6320245856381823	-4.925708859379999
O	3.5360479843090906	1.684978445638182	-3.9748769993799997
O	6.658740224309091	0.19667284363818216	-5.97715790938
O	7.43038468430909	1.4455992656381822	-5.854851999379999
O	6.237324484309091	0.12171975363818216	-7.398389649379999
O	7.427127534309091	-1.2612842543618177	-5.5601135593799995
O	7.967317574309091	8.721302925638183	5.79826550062
O	9.81009580430909	9.378644835638182	2.5548088806200004
O	10.45968940430909	6.092951435638182	0.7969156106200003
O	10.27768360430909	2.356211915638182	1.3662844306200004
O	7.8328843343090915	0.9475391226381822	-1.2276986383799997
O	7.39556457430909	-2.665080104361818	-0.2991315673799998
O	6.809726374309091	-5.338889334361818	2.2901404906200002
O	3.57257425430909	-6.890046534361818	3.37775068062
O	4.046221914309091	-8.588458454361819	7.982283850620001
O	5.277234474309091	-5.023522424361818	8.26318042062
O	6.841239854309091	-2.617596934361818	5.79634291062
O	5.005785594309091	-0.3267022733618179	3.34948872062
O	6.1514904843090905	3.287009245638182	3.0070046306200005
O	5.264829114309091	6.246345675638182	0.9043998006200004
O	4.684373674309091	9.048622195638183	3.4138285806200006
O	1.2432496443090906	11.380227345638183	-0.46157881337999973
O	-0.24317402269090949	8.551495535638182	1.5846121806200002
O	0.6946559543090906	4.948844505638182	2.1317225306200003
O	1.8274015943090904	3.655970985638182	5.49227227062
O	2.2493645543090905	0.07075858663818213	6.65244175062
O	4.299083034309091	-0.2505041233618178	9.833138590619999
O	-1.8025678356909096	-8.922527744361817	12.50185759062
O	-1.9518451856909094	-5.150619884361818	12.734488790619999
O	-12.30782569569091	-0.9942842743618178	-5.80226158938
O	-7.952065595690909	0.28529023853818214	-0.9653514944799998
O	-9.07788332569091	3.432707935638182	0.8130962806200003
O	-7.448155975690909	6.288905165638182	6.46836800062
O	-4.809188295690909	2.843114475638182	12.45663379062
O	-2.0529899856909095	1.596829285638182	9.16457399062
O	-2.4841589756909097	4.518578735638182	6.74815782062
O	-4.265505565690909	4.507347855638182	3.38752048062
O	-4.526273055690909	6.207351665638182	0.0063612356200002385
O	-1.3166270886909095	6.084735745638182	-2.05087063938
O	-1.2197124666909094	4.688761915638182	-5.59984502938
O	1.8539764043090905	5.563929375638182	-7.61330827938
O	1.4740041543090903	2.5628360056381823	-9.90215548938
O	1.7374706843090904	0.20806388463818215	-6.946894179379999
O	0.6356494943090906	-3.445972174361818	-7.3746738893799995
O	-0.9621079816909095	-4.980593084361818	-10.442979449380001
O	2.0805805243090902	-7.277218834361818	-10.43260239938
O	4.40323208430909	-4.311835684361818	-10.908953609380001
O	-1.6157420756909096	-9.707755454361818	-8.41114508938
O	0.8156871043090904	-8.482357454361818	-5.74006623938
O	-1.8764922356909093	-7.1312305143618175	-3.4348341893799996
O	-4.2323812656909094	-5.653452474361818	-5.985892209379999
O	-3.2731121656909097	-2.054390384361818	-6.78251282938
O	-3.6561603956909097	0.02090154363818214	-9.937433719380001
O	-5.059212535690909	3.549094885638182	-9.624070749380001
O	-4.121112025690909	6.485524835638182	-11.80485420938
O	-8.52033366569091	-1.675896984361818	-5.85809644938
O	-7.964388995690909	-4.680912704361818	-3.5695687693799996
O	-5.601496155690909	-4.386151214361818	-0.5822351023799998
O	-3.9344067656909094	-6.547548074361818	2.0576494106200003
O	-7.14190498569091	-7.545619544361818	3.9034694006200006
O	-5.294241945690909	-8.880731194361818	6.921956000620001
