83

O	-3.6922836376349997	1.3706042685500006	-0.12416361540333354
O	0.9866026023650003	1.2054811685500004	-0.2461145844033335
O	2.158245702365	1.7339199905500005	-0.8802292254033335
O	2.0744319723650007	2.6102394315500006	-1.9238437494033336
O	0.8835333723650003	3.2499814815500003	-2.0456745094033337
O	-0.1887613376349997	2.4418162115500004	-1.5723072114033334
O	0.06534901236500024	1.0600683045500006	-1.1226793324033335
O	-1.2605128072349998	0.8240369742500006	-1.4560809094033336
O	-1.5506965406349997	0.3233013365500005	-0.27176051240333354
O	-2.065869317635	0.9938148235500005	0.5990059505966665
O	-2.587868657635	-0.2998321884499995	1.3888509305966665
O	-2.6351755976349995	-1.6236732584499993	1.2854568905966666
O	-1.4884669376349997	-2.0493987884499996	0.8109447705966666
O	-1.0180186206349997	-0.8485290784499995	0.11110456159666648
O	0.20204490236500017	-1.2695685884499994	0.0549950165966665
O	0.6943213023650001	-1.7062828284499996	1.2833523505966664
O	-0.4063281046349998	-2.6775368984499996	1.4707582005966664
O	0.8678837423650003	4.470524391550001	-2.7186179194033335
O	-0.32347286763499983	5.34698799155	-2.7573649394033337
O	-1.1426308856349998	4.85517199155	-1.8918044394033335
O	-1.0045835476349998	6.223212451550001	-3.7015054394033333
O	-2.371672827635	6.886603461550001	-3.2596047194033337
O	-1.3873019336349999	7.532251851550001	-4.100152879403334
O	-0.40460687963499975	-3.6923312984499996	-13.229725789403334
O	0.13905263236500032	-0.1250643274499995	-14.411143989403334
O	-2.070808686635	2.2383150915500005	-12.421280989403334
O	-4.9610380276349995	2.14768748155	-9.969319899403333
O	-3.751180437635	3.8604143815500005	-6.818806689403334
O	-6.501762237635	3.3304618815500007	-4.309291199403333
O	-9.108024227635	1.1049137475500004	-2.6270014694033335
O	-8.766778997634999	-0.8557109384499995	0.6148945405966664
O	-11.797875397635	-4.6159167084499995	0.5163675105966665
O	-9.997232797634998	-4.968204508449999	-2.7843859394033337
O	-8.292383167635	-2.4936548384499995	-5.076477469403334
O	-4.711020117635	-1.2452771984499993	-4.779108909403334
O	-2.529963697635	-1.0584984284499994	-7.918550249403333
O	0.9459860123650004	0.21483239155000056	-8.713506379403334
O	2.503784352365	-2.7372897184499996	-10.550071439403334
O	7.592494772365	-0.8451276684499995	-8.855156189403333
O	5.550135452365	-2.7378123684499993	-6.270721349403334
O	2.104158362365	-2.2930259484499995	-4.663631329403334
O	-0.6149127056349998	-4.83444807845	-5.3035406794033335
O	-3.875638217635	-5.20876732845	-3.4616574694033337
O	-10.286014887635	-10.819957228449999	4.241014660596666
O	-7.470145567635	-11.63280842845	1.8575387305966666
O	-4.425837547635	-10.034775728449999	6.041146930596667
O	7.839022762365	1.1209219315500005	10.197826610596666
O	5.488166522365	-1.6169341384499996	8.931385350596667
O	4.519864182365	-1.8734813584499994	5.216436060596666
O	6.818522472364999	-4.358975928449999	3.6972276205966663
O	4.977617532365	-7.4865373984499985	2.7219028205966667
O	6.222070642365	-9.430941628449999	-0.2979935064033335
O	3.693488622365	-12.20285472845	-0.8113419534033335
O	0.18764650236500025	-13.54096672845	-1.1759910914033336
O	-1.2045322305349997	-9.33313862845	-1.8038486794033335
O	1.9993034923650004	-7.636814848449999	-2.8946801094033336
O	4.261077642365	-5.22543121845	-1.0487105664033336
O	6.875345732364999	-2.4462002184499996	-1.3317935724033334
O	5.729837552365	0.6303158345500005	-3.2836811794033336
O	5.836930432365	4.15365829155	-1.7123176394033335
O	5.168247212365	6.96478122155	-4.162280329403334
O	3.9535653923650003	9.327485231550002	-1.4962351534033336
O	1.136832362365	6.9864132015500005	-0.5700101682033335
O	-0.8381955526349998	7.518664611550001	2.5816249605966664
O	-0.021851467634999677	10.072209381550001	5.270286170596666
O	-3.4565612476349994	11.53562957155	4.508046090596666
O	-2.4066696676349997	12.349682271550002	0.9350854805966664
O	0.9803541123650004	13.61119297155	2.1260186305966666
O	-3.852379327635	8.71269842155	8.458648410596666
O	-5.287148497635	6.96337422155	5.420176790596667
O	-3.5372355276349996	3.6762241315500006	6.206437550596666
O	-0.1794585276349998	4.923017991550001	7.351742660596667
O	2.2093660623650004	5.402403761550001	4.436840890596667
O	5.068225892365	7.9034169615500005	3.963175040596666
O	8.401714022365	6.655757991550001	2.6170757905966666
O	10.794918002365002	8.61522653155	0.4266779605966664
O	6.108228252365	6.34843052155	8.079525880596666
O	5.187387892365	2.6762954315500007	7.904688640596666
O	1.8344528023650002	1.1950765585500005	9.015033580596667
O	-0.3171352226349998	-0.7293904684499994	6.475730040596667
O	-3.7772367476349995	-2.2811686784499994	6.2394891505966665
O	-3.3149462376349996	-4.97222397845	8.901351890596667
O	-6.369223827635	-6.905771328449999	7.798864930596666
