95

O	-3.1715599284166665	1.3823478284833333	-0.8570765907066668
O	1.6349961315833337	2.8845449614833334	1.864947459733333
O	-2.9402977684166665	1.2890961584833334	0.5175639997333333
O	-1.4617975054166663	-1.2523034285166668	-0.8590492571666667
O	-1.9501145494166665	2.0498897114833334	1.0137324697333332
O	-1.5326355454166665	0.5830122534833334	-2.103293680266667
O	-1.5486110644166664	3.1175711014833336	-0.002428497266666718
O	-1.2044483978166665	-2.575907818516667	-5.011843200266666
O	-3.0741008484166663	-0.33465618851666656	-2.6518601702666666
O	-1.0800195073166663	2.8364357314833333	-1.4281078442666666
O	1.3820956115833338	4.469339341483334	0.12016540573333334
O	0.09353612158333369	2.0869969214833333	-1.4732593322666667
O	-0.8077558684166664	-2.8979597985166663	-2.4241038102666668
O	0.8798491015833338	2.1554707714833334	-0.23976207826666673
O	1.4149275315833338	3.293707261483333	0.5372161497333333
O	1.1511095115833339	1.5688302104833334	2.0814150497333332
O	0.7020988415833336	1.0892878543833333	0.7255071497333333
O	-0.04867712841666627	-0.04640892851666667	0.33226075973333324
O	-1.0630560089166663	-0.47758606851666663	0.9812272197333333
O	-0.9461133844166664	-0.7310541685166667	2.402402309733333
O	-1.2605664474166665	-1.9374378785166668	3.0525405897333333
O	-2.2578504984166665	-2.617800188516666	2.3497178997333332
O	-2.3665162384166663	-2.4736655485166663	0.9616886897333333
O	-1.3763053964166663	-1.7278579685166664	0.4093176497333334
O	-0.36395334941666635	-0.35644583851666667	-0.9503737252666667
O	-0.27681616341666637	0.8025409594833334	-2.0217244002666668
O	-2.0122789014166664	1.6988256334833334	-1.5916013302666667
O	-2.4543696784166666	-1.3424890185166667	-1.8872887202666666
O	-1.9476758454166663	-2.2955330785166668	-2.850839490266667
O	-1.9942761554166664	-1.6896943785166665	-4.215367950266667
O	-1.3914069374166664	-0.32684964851666654	-4.349958930266666
O	-2.2459426384166665	0.5096419704833334	-3.474947900266667
O	-3.6662026884166665	-1.8619617085166664	-1.2642808232666667
O	-1.1288728556166663	-4.068920298516667	-1.7630499922666667
O	-1.6156095624166664	-2.4883834085166665	-6.381046790266667
O	-9.156783918416668	10.438157931483333	4.6072377697333335
O	-8.247590948416667	12.653881831483334	1.653056469733333
O	-7.880485458416667	10.516971101483334	-1.4953742222666668
O	-8.581929538416667	7.051758281483333	-2.8481833202666667
O	-5.243256168416666	5.503091541483333	-3.8769138002666668
O	-6.048947728416667	1.9432296554833335	-4.821813430266666
O	-7.765763358416667	-1.3335686785166667	-4.020330670266667
O	-6.255205588416667	-4.338691338516667	-2.225717560266667
O	-7.2560959084166665	-7.995222508516667	-2.741990620266667
O	-9.882786868416666	-6.901713188516667	-0.22888761126666668
O	-10.522076668416666	-3.408047158516667	1.0567263397333333
O	-9.834669948416668	0.02209308548333333	-0.32624206126666666
O	-6.679736648416666	1.9775466544833333	0.20193993973333335
O	-6.823438148416666	5.788870411483333	1.1189741797333332
O	-4.219259088416667	8.598591001483333	1.5558047497333334
O	-5.114302258416666	10.015042371483332	4.964392929733334
O	-0.3439897574166664	8.024417701483333	6.163184229733334
O	-1.7938948654166662	5.129124821483333	4.187820239733334
O	-5.103227098416666	3.5204842114833337	5.284795599733334
O	-6.6660341184166665	0.2867560594833334	4.0180675897333336
O	-8.726340478416667	-10.919964968516666	5.874172269733334
O	-8.315016458416666	-7.7663530885166665	7.914143879733334
O	12.230062271583332	-3.103551308516667	2.9741631997333333
O	5.920834841583334	-1.6449321885166668	4.5099056797333335
O	5.945451101583334	0.09444834748333342	7.8784938097333335
O	1.3011954915833335	1.5951289324833335	12.220241109733333
O	-5.0751606384166665	-1.9894656285166665	13.164701709733334
O	-5.028532278416666	-0.9572422685166666	8.803387269733333
O	-2.6978233384166663	2.0485571114833334	8.792779189733334
O	0.8538700215833335	2.3006492514833337	7.5122782897333344
O	3.549718291583334	4.648986041483333	6.255004739733334
O	2.6171483215833335	6.531582981483333	3.0706353997333333
O	4.794345211583334	6.432931981483333	-0.09308475326666676
O	3.8753644715833335	8.936595441483334	-2.766667910266667
O	5.300367001583334	6.843729951483333	-5.561133660266666
O	2.8359207715833334	4.019254991483334	-4.740919380266667
O	3.411213531583334	0.5751313004833334	-6.178689910266667
O	6.492701501583333	-0.4538304085166667	-8.260082700266667
O	4.055466541583334	-1.1871461485166666	-11.062712990266666
O	2.9480661415833334	2.4608474214833334	-11.106527790266666
O	6.578461211583334	3.620243721483333	-10.872124090266666
O	1.5248837815833336	-13.218818368516667	-3.648267570266667
O	4.634882431583334	-11.218299768516667	-4.573351920266667
O	4.3411318415833335	-8.943325998516666	-7.625924560266666
O	5.206998731583334	-5.434722938516667	-8.906714520266666
O	1.7834260815833338	-4.223456408516667	-7.859916460266667
O	2.3609696315833335	-4.927711448516667	-4.146079630266667
O	5.912542341583333	-3.7388136285166667	-3.8356953302666668
O	6.151534941583334	0.0030499674833334156	-3.093743960266667
O	8.828087541583333	2.5547907814833337	-4.056331330266667
O	10.105024771583334	4.948028571483333	-1.3665821272666667
O	11.247728871583334	8.513624801483333	-1.9570071202666668
O	11.421298771583334	-0.6986463485166665	-2.355747420266667
O	9.419843871583332	-2.108527038516667	0.5352925597333332
O	7.117481861583333	-5.154740588516667	0.3247005697333333
O	3.4246744615833338	-4.849732848516667	1.206502689733333
O	0.1684577415833337	-6.803555888516667	0.9814365597333333
O	1.0930885515833335	-9.443016368516666	3.5401200297333335
O	-2.4301865984166664	-10.729053568516667	3.9531529497333335
O	-1.7597090774166664	-14.105448168516666	2.3296464897333333
