85

O	-3.4913509959090905	1.9013228977272725	-1.6552180458787897
O	-3.1731772159090905	3.0557324517272724	-2.2628051568787897
O	-1.7272398259090906	3.414431891727273	-2.17545989687879
O	-2.289463395909091	1.0061562037272727	-1.4241439268787897
O	-1.2000669279090905	1.3731841289272726	-2.09224453687879
O	-0.9024125019090907	2.6365153817272726	-2.7450759868787897
O	0.35864750509090937	3.304279381727272	-2.5021082268787898
O	-0.20726686490909063	3.7494569517272724	-1.3920700678787898
O	-0.6277647644090907	2.5666351017272726	-0.5192738978787899
O	-0.7857707039090907	1.3307620656272727	-0.6255191938787898
O	-2.7131171359090906	-0.11723865827272739	-0.9120566858787897
O	0.0136899990909094	0.24188775172727262	-0.5201778208787898
O	0.1759046260909094	-0.23898661827272738	0.7886709231212101
O	-0.7343188159090906	-1.2372861682727272	1.1953883431212102
O	1.0076466840909093	-2.6204844882727274	2.1003971831212103
O	1.9332816540909095	-1.7556521982727273	1.6315304131212103
O	-0.30842913490909063	-2.4267422582727276	1.7052524331212102
O	1.4494734240909093	-0.7096174282727274	0.8949631031212102
O	-1.0920741069090907	-3.557088568272728	1.59769350312121
O	5.83643744409091	7.1455465117272725	12.06035909312121
O	3.0928419640909093	9.771608561727273	12.12376149312121
O	-0.13595120290909063	9.130308611727273	10.23545349312121
O	-1.3160752969090908	12.151260731727273	8.26502576312121
O	-4.13341076590909	11.135574111727273	5.93916200312121
O	-6.448219055909091	8.196945991727272	5.26878831312121
O	-5.826480725909091	7.158420311727272	1.6561649031212102
O	-7.73016825590909	3.9143318617272724	1.2342353531212102
O	-8.995316285909091	0.5452086107272727	2.4914019231212103
O	-7.50496798590909	-2.8307465382727273	1.7136322631212102
O	-9.260797025909092	-6.184927998272728	1.6465665831212104
O	-8.561923495909092	-5.908886948272728	5.3687588931212105
O	-7.117392935909091	-2.937792648272728	7.21748792312121
O	-6.864345595909091	0.7461067077272726	6.37855096312121
O	-4.177562915909091	2.4294507417272726	4.32713247312121
O	-2.6427496359090905	5.719076081727272	5.490785883121211
O	-0.17262470790909068	8.292136101727273	4.19955227312121
O	2.3294943340909096	8.628268521727273	7.0342701131212095
O	5.48892840409091	6.393628281727272	3.4414712931212104
O	2.4213162140909095	4.263467671727272	3.20554679312121
O	1.0523129140909093	2.3726777217272725	6.264736303121211
O	-1.6138429259090907	-0.31233565827272747	6.3795706831212105
O	-3.0809201859090907	-1.0008914882727276	9.71977109312121
O	-4.09940922590909	-11.571463968272727	7.030688403121211
O	-1.4645243529090908	-9.204685268272728	8.34680325312121
O	0.9937185740909094	-12.038761268272728	8.94802107312121
O	0.4156941360909093	-13.726097868272728	5.599760573121211
O	0.9915417840909093	-10.502358868272728	3.68834770312121
O	4.12335265409091	-9.699610068272728	5.73642033312121
O	10.91582780409091	-2.0270713082727276	-9.43034368687879
O	7.499460434090908	-3.3249500482727274	-10.42551998687879
O	6.50241165409091	-4.691566308272727	-6.99864274687879
O	5.4654193340909085	-2.3132890382727274	-4.18509938687879
O	8.58456503409091	-1.7046083682727275	-2.07966523687879
O	8.16599013409091	-3.2804594882727276	1.37172814312121
O	9.72801620409091	-1.5609027782727274	4.37943177312121
O	8.603475354090909	-3.5800845082727273	7.40772052312121
O	5.96498833409091	-5.277618168272728	9.52928929312121
O	2.8289526040909094	-2.992216948272728	7.3316512031212095
O	4.919281954090909	-0.0840967282727274	5.970878113121211
O	5.968907754090909	0.5570852297272726	2.32627129312121
O	6.984665264090909	3.1401339817272724	-0.23367256387878976
O	4.270026744090909	5.740995961727273	-0.8886759058787899
O	3.1077943440909093	6.604523921727273	-4.39240357687879
O	1.2570233540909093	9.938296411727272	-4.7551521968787895
O	-0.6520992869090907	8.783286441727272	-7.839764796878789
O	-2.1997646859090905	5.927538211727272	-5.89728621687879
O	-3.8210346859090905	3.0298128417272725	-7.843253706878789
O	-3.9186560059090905	2.5429601717272727	-11.58343770687879
O	-7.711116845909091	2.7199435617272725	-11.14758670687879
O	-7.475907235909091	6.2758187617272725	-9.74100536687879
O	6.117403564090909	-7.111999128272728	-12.34968370687879
O	-6.8082281759090915	-5.682280578272728	-10.62994623687879
O	-6.45005720590909	-1.9857946982727273	-11.49315330687879
O	-7.255242225909091	-1.0741064282727273	-7.893912196878789
O	-4.1760509759090905	-2.8230573882727272	-6.47426191687879
O	-1.6173891459090906	-1.8966476182727272	-9.09761945687879
O	0.04005815909090937	1.4635578447272726	-8.32084372687879
O	1.4679571540909095	4.172183401727272	-10.57533434687879
O	4.88269218409091	5.645960351727273	-9.71488408687879
O	4.23406354409091	-1.6435208582727274	-9.29815571687879
O	1.9995800940909092	-4.477981898272728	-8.04804175687879
O	0.6741439740909094	-4.417575168272728	-4.471572436878789
O	-1.8103795159090907	-6.2605082482727274	-2.27927827687879
O	0.06243155509090936	-9.571821768272727	-2.09815089687879
O	-1.9481663859090907	-10.835398168272727	0.8571503031212102
