27

O	10.543136111225376	64.21977370200527	7.8597001388078045
O	11.410474637890324	64.84606545362364	6.796535844866902
O	11.163096992977945	64.66831569550071	5.455710180016076
O	12.285033145789875	64.8289729258068	4.651682965010602
O	13.499145908081898	64.84190249823173	5.328085018533712
O	13.328277421734079	65.87932105457988	6.310271575611293
O	12.636035638981337	65.19876679356283	7.281093592062706
O	14.667356613152302	66.23995161326266	6.618116740753658
O	15.27460384794867	66.9390674824137	7.33400904971558
O	16.24640261970411	67.51591729832853	6.893047861544238
O	15.313143961519568	68.07019849823607	5.89503771302671
O	15.39364322440439	67.54490585846816	4.618295371609743
O	14.664640044786996	67.35194016974124	3.5849816305736697
O	15.243277531733613	67.97907645899328	2.4362429393887814
O	16.391587986725614	68.61180827537686	2.325709758952848
O	17.590752212844848	68.7425647609394	1.5994379309173166
O	18.53948493211511	68.62888105965578	2.526164520101896
O	18.120628970994133	69.71363393207147	3.3830210055717123
O	16.874026765551825	69.23071834260122	3.5675629294979503
O	16.437627109367746	68.67852054547929	4.767609415038289
O	17.209821801792373	66.64574193645912	6.322920986344604
O	18.053150816685644	66.65907535745453	5.253522899159245
O	17.697931179721582	65.98944501087126	4.043241121300286
O	16.86015291898312	64.89402967829808	4.351176439219875
O	16.920190619718838	64.30179890277647	5.634661235110133
O	16.89535781232656	65.32975417922171	6.671679978730334
O	15.468771410664436	65.24063995527962	7.154647030012233
