89

O	-1.6263427839104474	-0.16314968037313415	1.2909615357298505
O	-0.9668235861104475	-0.6972791523731342	0.2108782807298505
O	-2.0534824919104473	-0.8643365523731342	-0.5340961482701495
O	-2.7788297519104477	-1.763220982373134	0.2049071017298505
O	-2.6353596519104476	-1.071956322373134	1.3824057357298505
O	-4.1377333319104475	-2.002605692373134	0.1925254707298505
O	-4.531725001910448	-2.1357104223731342	1.5190756257298506
O	-3.4032635519104475	-1.766291142373134	2.2629833357298503
O	0.46660333808955246	-1.049766002373134	0.2448676237298505
O	-1.5408601309104477	1.2555785406268658	1.4306263257298506
O	-0.6494955209104476	2.1453626176268656	0.9295140357298506
O	-1.1703311459104475	3.3831912476268657	0.6533116657298506
O	-2.1597145819104475	3.863878997626866	1.4232982157298506
O	-3.1805105619104475	3.029005157626866	1.1885411257298506
O	-2.8767752619104474	1.789748327626866	1.6526807057298505
O	0.9067586080895524	-1.1590006723731343	1.5784979957298506
O	2.3157993580895524	-1.445947582373134	1.5748027457298506
O	2.5924615780895524	-2.427314392373134	0.5752079237298505
O	1.4953522080895523	-3.244394202373134	0.28931499572985053
O	0.7067102780895524	-2.301540792373134	-0.29340245107014945
O	1.0229578480895523	-4.617660712373135	0.6835470157298504
O	-2.7556244819104476	5.074088627626866	1.6653520857298505
O	0.7303732280895525	6.959152997626865	12.73860125572985
O	-2.6526647419104474	8.711239997626866	12.646230055729852
O	-5.291983631910448	6.3312119576268655	11.252560655729852
O	-5.818402521910448	2.707507137626866	10.280889355729851
O	-6.645734091910448	2.5600611276268657	6.56340658572985
O	-6.706803541910448	-1.1486913123731344	5.8697093157298506
O	-5.177289751910447	-4.676247292373135	6.10328789572985
O	-2.8158465819104475	-6.3411134523731345	3.5946800657298503
O	-2.4060613719104476	-10.022764572373134	2.9041940357298506
O	-0.10866220891044753	-9.628690672373134	5.90101291572985
O	0.35386977808955256	-6.556594472373135	8.04349148572985
O	-1.7761671319104475	-3.528920182373134	8.735343765729851
O	-1.8186149189104475	-0.3799161023731342	6.818478665729851
O	-1.7634820649104475	3.128868947626866	8.348569375729852
O	-1.9995136179104476	6.810454117626866	7.30342541572985
O	1.0369347780895524	8.378680407626867	8.907767005729852
O	2.5473153980895527	8.966598567626866	3.79428541572985
O	1.4641098380895525	5.449895307626866	3.98686122572985
O	2.7607558480895524	2.769391207626866	6.225263395729851
O	2.3540781180895523	-0.9850861523731341	6.30455018572985
O	3.4400396580895527	-2.689559712373134	9.43353682572985
O	6.732262338089553	-11.416694872373133	3.561532305729851
O	8.032929778089551	-8.015624382373133	4.62333413572985
O	11.431650578089553	-8.645149392373133	3.090648055729851
O	10.142395978089551	-10.089187072373134	-0.16706356827014945
O	7.832542928089552	-7.096180052373135	-0.7483662912701494
O	10.588471778089552	-4.6382659723731345	0.11690282272985053
O	3.6405573380895526	6.582266127626865	-12.40046674427015
O	1.3627258780895524	3.563221987626866	-12.409898544270149
O	3.149552498089552	1.634900986626866	-9.657611844270148
O	2.7114670580895526	2.6073776976268657	-5.97202457427015
O	5.659305808089552	4.907919287626865	-5.16826813427015
O	7.976648918089552	3.189657167626866	-2.6819742042701495
O	9.790800178089553	5.310565077626865	-0.06094753627014948
O	11.554686378089553	2.784157797626866	2.179110585729851
O	11.631748878089551	-0.3431772723731342	4.290126665729851
O	7.830584588089552	-1.103240172373134	8.178653305729851
O	7.1916056980895515	-0.37674803237313415	4.44424062572985
O	6.480781598089553	3.288661417626866	3.6066952857298507
O	5.048576918089552	4.643959687626865	0.37094279672985053
O	3.255871798089552	7.593564707626865	-1.2051113452701494
O	-0.19356286391044752	8.224079307626866	0.1785638387298505
O	-3.4207699519104477	8.389941007626867	-2.1101667142701492
O	-6.622398341910447	9.708588767626866	-0.4217494551701495
O	-8.963254711910448	7.790197627626865	-2.7508599642701492
O	-7.596734021910448	4.4564335176268655	-1.6014315642701495
O	-8.363769991910447	1.2740930946268658	-3.7554636842701496
O	-10.071108661910449	1.095716248626866	-7.02155558427015
O	-12.528890521910448	-1.1637440223731343	-5.13570343427015
O	-13.429303421910449	1.6717568896268657	-2.72093756427015
O	2.1059071580895523	-9.650277872373133	-10.038222014270149
O	-3.9596012419104474	-8.369055662373134	-9.276797554270148
O	-7.412564511910448	-7.166141942373135	-8.18714126427015
O	-9.475642591910448	-4.014109192373135	-7.65591357427015
O	-8.604440251910448	-4.054013922373135	-3.9759749842701497
O	-4.879308441910448	-3.643697412373134	-4.66000586427015
O	-4.962153661910447	-1.0919608123731344	-7.4423332542701495
O	-5.105867841910447	2.490892957626866	-6.14767712427015
O	-6.645526811910447	5.666783997626865	-7.593070194270149
O	-4.563454021910447	8.884831687626866	-7.59206839427015
O	-1.1382561579104475	2.775328537626866	-9.60423070427015
O	-0.6259373829104475	-0.8978188923731342	-8.849649654270149
O	0.32849838808955245	-1.9664974723731339	-5.394372864270149
O	0.6978446780895524	-5.1460939623731345	-3.29208614427015
O	3.7542914980895525	-6.545935502373134	-5.012034604270149
O	4.543598628089553	-9.005954472373134	-2.2211666642701493
O	5.380987678089552	-10.910805072373133	-7.46454971427015
