31

O	18.63856555393728	69.62371721865412	1.7200076856546782
O	19.04636940182739	69.28837957920581	2.9215296582846024
O	18.333872729466812	68.44503921205754	3.6603400569429083
O	17.004970062720876	68.33371735080337	3.5841984110442375
O	16.50044778978903	68.7670987430554	2.4032764466771184
O	17.333586944318885	69.29310995464986	1.4726614086489875
O	15.168672034706143	68.42270692709431	2.151525413622789
O	16.394572511630486	67.96663595725875	4.828308460970497
O	15.363546855928607	67.28125665144378	4.8856988839609095
O	17.28083534069734	68.13235086027639	5.998513486723704
O	20.315147235697523	69.68066917363315	3.467886957402648
O	21.281067246672446	68.73272467802906	3.125843703460162
O	22.545512206656365	69.41920860847392	3.221514735116723
O	22.76366310441405	69.92664635846417	4.47170779138205
O	21.651248105052566	69.98037485414783	5.283074563835417
O	20.378554768534013	69.5742734908541	4.881329596542104
O	23.985327702019994	69.83398537065158	5.287983777973067
O	16.96687810677518	67.53697208149012	7.206485879867275
O	15.60148387943973	67.553619089666	7.483045033707949
O	15.158397281535596	66.81335774547671	8.511492865798417
O	15.993607406040388	65.80663690190009	8.77556443840571
O	17.3068788944469	66.30406818272424	9.032726813651086
O	17.957491485540967	67.1391433150516	8.108855391694714
O	23.59895849152906	69.92167618861366	6.77246824575896
O	24.05757631901132	68.96583456278215	7.557742990755893
O	19.197318389154354	67.74869811797558	8.282070634707173
O	19.543719770698743	67.92674058362	9.706495016259476
O	20.913337919759257	67.99520599226322	10.223689412948211
O	22.02080243579009	68.4750057910008	9.577391115234132
O	21.31951067721585	68.80127774935771	8.451060773557831
O	20.475933858648535	67.85317544169563	7.672925647057298
