71

O	1.2515650713584743	-1.5114099968305084	0.29990828775084744
O	1.924851741358474	-0.8115239468305082	1.4298423767508475
O	0.15757174135847413	-1.0892411068305083	-0.4022244242491525
O	2.0676312013584743	-2.287589756830508	-0.5841991292491526
O	1.1912599213584742	0.37808059166949176	1.1856951167508476
O	3.1528067313584742	-1.3186317168305084	1.3672756967508475
O	0.4629003023584742	0.22529449816949176	-0.5013940082491526
O	-0.6785738366415259	-1.7450473468305083	-1.1101563432491526
O	3.2382269313584744	-2.7694419968305084	-0.24473493124915255
O	1.3464235313584743	-2.9794036568305082	-1.6990638732491525
O	1.8366144813584744	-0.3421890888305082	-0.12555267394915254
O	3.7587996313584746	-2.3930350968305083	0.9508157267508474
O	-3.0180851186415256	-9.545341756830508	9.404724606750849
O	0.5994111863584741	-9.745998526830508	10.528937856750849
O	1.9855785713584742	-6.246566976830508	10.957226256750848
O	0.8525857913584742	-2.6204413468305083	11.015235556750849
O	2.695056111358474	-0.8469928368305082	8.179536926750847
O	1.1311853013584743	2.549368633169492	7.876868326750848
O	-1.862027648641526	4.896511253169492	8.106686636750847
O	-3.7901044286415257	6.2826472231694925	5.154989026750847
O	-8.317847358641526	7.291000953169492	6.580979896750847
O	-7.909622748641526	3.7302794531694916	7.767704876750847
O	-4.878793358641526	1.6879065631694916	8.745534296750849
O	-2.587420688641526	-0.24545675083050827	6.368033046750847
O	-1.4954336986415258	-3.7711221068305085	7.295208966750847
O	0.8304326613584743	-6.393212746830508	5.882047176750847
O	-1.3431478986415257	-9.492945376830509	5.693824556750847
O	1.9882890013584742	-11.18141552683051	1.4187225467508475
O	-0.651577544641526	-8.646324516830509	0.5297223487508474
O	-1.5013823486415259	-5.205717956830508	1.7230952967508475
O	-4.737170128641526	-4.466242396830508	3.5397888967508475
O	-6.200865518641526	-1.0472272168305083	4.256959776750847
O	-13.910440868641526	7.0376138831694925	1.7978499367508476
O	-11.443260568641527	4.442480773169492	-3.214744243249153
O	2.732003641358474	1.8067271031694918	-12.387499543249152
O	-0.5537107096415259	1.8511168031694918	-10.447432543249151
O	-0.915113292641526	-0.10407605083050825	-7.202246143249153
O	-2.415667188641526	-3.4706149768305083	-8.066839353249152
O	-5.918673658641525	-3.681132996830508	-6.603187913249153
O	-7.167657498641526	-7.088747696830508	-5.449627893249152
O	-10.569542368641526	-6.403874176830508	-3.8885764932491527
O	-12.904065868641526	-4.537840906830508	-1.5699041032491525
O	-9.360461188641526	-2.890268496830508	0.5391510107508474
O	-6.700533158641526	-5.452848616830508	-0.4624041702491526
O	-3.803449198641526	-4.945729606830508	-2.8813292732491527
O	-0.3205345327915259	-6.030780816830508	-3.8329238932491525
O	2.317336971358474	-5.775414226830508	-1.1698381632491526
O	5.542234271358474	-3.803190316830508	-1.7992227132491525
O	8.183527771358474	-4.431373506830508	0.8335003257508474
O	9.922982731358474	-1.1703662468305083	0.13531030975084746
O	6.722068721358474	0.7003235601694917	0.9914242467508475
O	6.5464603413584745	4.394726653169492	-0.006933753549152544
O	9.005422551358473	6.3592967631694926	-2.1124882832491525
O	9.292110001358473	8.577341423169491	0.9787366667508474
O	10.612072731358474	5.669423773169492	3.057885746750847
O	12.833547931358474	4.489182983169492	0.20000501175084748
O	6.264424871358474	10.743120973169491	-2.1420583432491527
O	4.324264851358474	9.136769033169491	0.7184228627508474
O	1.7272520813584742	7.562178813169492	-1.5545049332491525
O	3.950975131358474	6.448005213169492	-4.4173012532491525
O	5.352807211358474	2.940709643169492	-3.752768103249153
O	8.618564791358473	1.3522209771694917	-4.836244733249153
O	8.546158221358473	-2.1734132068305083	-6.273802443249153
O	11.257099231358474	-4.776043576830507	-5.865005763249153
O	7.220355371358474	2.9715616531694917	-8.782022433249152
O	3.4663349713584743	2.4831081331694915	-8.675724053249152
O	0.9580514713584742	5.178698593169492	-7.622857743249153
O	-1.4527212286415259	4.486737003169492	-4.754746613249153
O	-3.9717871386415258	6.243997383169492	-2.5188486932491525
O	-6.5320649286415255	7.028651703169492	-5.246568243249152
O	-9.245432608641527	7.849014543169492	-2.7404611632491527
