82

O	-2.9170817439215684	2.0164280926254894	0.2739470946705884
O	-2.1254324039215686	1.6737147536254893	-0.7296234033294116
O	-1.2141756469215685	0.7265284869254893	-0.5615758543294116
O	-1.1466026819215684	-0.10348890037451075	0.4922439446705884
O	-2.0815081739215686	0.12425923962548935	1.4518651946705883
O	-3.0184118539215685	1.0471570156254892	1.2425704046705883
O	-2.1905704839215687	-0.8301560173745106	2.4707156046705885
O	0.062167737078431484	-0.8627466773745107	0.5556241846705885
O	0.20391679907843152	-1.908894657374511	1.2024859746705885
O	1.0932324160784317	-0.4524720873745107	-0.3931225913294115
O	-1.8734350539215687	2.6824428626254893	-1.7224591063294117
O	-2.0530038039215683	2.2300001726254894	-3.0303733453294113
O	-2.0780176239215686	3.4417049226254894	-3.8117060753294116
O	-0.9224333869215685	4.140064142625489	-3.8122424853294117
O	-0.31566152792156854	4.10639824262549	-2.5990114953294117
O	-0.5190693549215686	3.0169225626254894	-1.6991173243294115
O	0.014627432078431535	4.393287802625489	-4.958518885329411
O	2.1965058060784317	-1.2124534673745107	-0.7264393783294116
O	2.6572313560784315	-2.051862837374511	0.29010446467058837
O	3.566749306078431	-2.989875157374511	-0.03586956532941166
O	3.9878416960784313	-2.976805467374511	-1.3018339303294115
O	4.134349106078431	-1.6712615273745106	-1.8364204753294116
O	2.9715621660784315	-0.8775797373745107	-1.8254274613294115
O	1.3108689560784317	3.5505565426254893	-4.797699575329411
O	0.9969125460784315	2.6040993326254895	-3.8434405853294114
O	2.8316837360784315	0.2527293886254893	-2.6866670553294116
O	2.8462351060784314	0.16488600962548927	-4.123626535329412
O	3.3957893760784317	1.1726678886254893	-5.043750285329411
O	4.352589916078431	2.0747560826254894	-4.876896345329412
O	4.8430092860784315	1.3434586706254894	-3.7540228553294117
O	3.7211403260784315	1.4021670876254893	-2.6957528253294116
O	-10.727072153921569	-5.990383737374511	-6.818203175329412
O	-11.50998945392157	-2.546387317374511	-8.188369665329411
O	-8.266713233921568	-0.8320304473745106	-9.127514805329412
O	-4.557774223921569	-1.6126043073745109	-9.529788625329411
O	-2.8459457439215683	0.6279482736254893	-7.059082085329411
O	0.7726953260784314	-0.5190437073745107	-7.221418335329411
O	3.5029489960784317	-3.304468757374511	-7.320856285329412
O	5.470144366078431	-4.683029387374511	-4.380276715329412
O	8.938637666078431	-6.159404597374511	-4.4233902253294115
O	6.867788356078431	-9.15704960737451	-5.542549565329412
O	3.1481399760784314	-9.22065261737451	-6.297667365329412
O	0.6251296560784315	-6.57245116737451	-7.265101815329412
O	-1.2753309199215686	-4.273123387374511	-4.881332485329412
O	-4.983612383921569	-3.642113797374511	-5.465427805329411
O	-7.739030193921569	-1.514574877374511	-3.9907216653294117
O	-10.488546603921568	-3.9834988273745107	-3.2859161853294117
O	-9.216649573921568	-2.8311758373745106	1.6728165546705887
O	-5.736482083921569	-3.2637343073745106	0.17335992467058836
O	-4.894702203921569	-6.5886696773745115	-1.4620371673294117
O	-1.4580252749215685	-7.8344465973745105	-2.4632507153294116
O	7.745570466078432	-14.34582411737451	-0.37382980932941157
O	0.0009542600784314681	-1.5594548773745105	8.447779114670588
O	-2.5043477739215687	-10.79445301737451	1.6617245846705884
O	-5.193219093921569	-8.32576034737451	2.7275792446705887
O	-4.829258063921569	-5.219864327374511	4.859703204670589
O	-6.296154693921569	-1.8868251873745105	5.757048354670588
O	-6.508108183921569	0.5422533786254893	2.8566572546705884
O	-5.025722323921569	4.03844540262549	3.0003040846705886
O	-6.1665105939215685	6.47441608262549	0.25223056467058846
O	-3.0215642339215685	8.60017953262549	0.5041119846705884
O	-0.8944146169215685	5.5894276226254895	-0.23164966832941158
O	2.9292049860784317	5.864931572625489	0.4274028646705885
O	4.761201286078431	8.61661166262549	2.1190443546705886
O	6.721059216078431	8.93819108262549	-1.1414579085294116
O	3.4787434360784313	9.77104113262549	-3.006331155329412
O	2.3050001960784314	12.07181198262549	-0.22161337432941153
O	12.608317246078432	0.7509943764254893	5.257281964670589
O	11.987236246078432	3.682577182625489	2.9099869346705884
O	9.46023304607843	6.44102497262549	2.0759676546705883
O	7.950511356078431	4.17046217262549	-0.43064618232941154
O	6.802985946078431	1.4901861676254893	1.9855840846705886
O	5.621570976078432	3.776218082625489	4.738418864670589
O	1.9519483460784315	4.748580062625489	4.308389434670588
O	0.09963197207843144	7.908568402625489	5.305961434670588
O	-3.2591508239215683	7.53882463262549	7.057595124670588
O	-6.156984673921569	9.95483305262549	6.677571844670588
O	2.1954940060784316	6.954012742625489	9.181746034670589
O	2.1834057660784314	3.1729106026254894	9.390020034670588
O	4.979598086078431	0.8496108329254893	8.16804415467059
O	4.241907226078431	-1.6903215973745107	5.3391020646705885
O	6.205250716078431	-4.222714577374511	3.2730010646705887
