95

O	5.777235965437705	0.3922169882670493	0.19454563373770412
O	4.591174685437705	0.7779687082670492	0.9027710907377042
O	4.470248135437705	2.026600336267049	1.5916284007377042
O	3.1905325354377045	2.403226776267049	1.8371369207377042
O	2.919894715437705	3.754732766267049	1.6340108607377044
O	1.656278765437705	4.23797788626705	1.8325964407377044
O	0.6633964814377049	3.3727821662670494	1.3126168207377042
O	0.896435974437705	2.0235825542670494	1.0895225507377042
O	-0.2733123875622951	1.3479106547670492	1.0246618707377042
O	-0.5345492895622951	0.015743326267049218	1.4678827507377041
O	0.3877533184377049	-0.6674774837329507	0.8039172707377042
O	1.6542656554377049	-0.7753936837329509	1.2802876307377042
O	2.452630185437705	-1.5667057337329506	0.4451574007377042
O	2.846219905437705	-2.9562955637329504	0.31436657173770416
O	2.1313300154377046	-0.8728252837329507	-0.7194206822622958
O	3.4534890254377046	-0.4202960837329508	-1.2266610812622958
O	0.985657323437705	-1.1368259837329506	-1.2356143092622958
O	-0.08421082876229509	-0.7279437337329506	-0.4458615828622958
O	-1.266683404562295	-1.7251486137329506	-0.32314618226229586
O	-1.256084684562295	-2.6795476037329506	0.7518374207377043
O	-0.2577392875622951	-3.7135619237329505	0.5765348007377042
O	0.004927898197704904	-3.8705658237329508	-0.7392679622622959
O	-1.3153815845622951	-3.884919623732951	-1.2767839502622957
O	-1.113181144562295	-2.4567450437329508	-1.4148797652622958
O	-1.503469394562295	1.9928390992670493	0.9289249807377042
O	-1.603720584562295	3.3248105762670495	1.2070086207377042
O	-0.49191444956229513	4.03052208626705	1.2707775207377041
O	4.011923145437705	4.52744797626705	1.7116299107377044
O	5.230334495437705	4.166691766267049	1.2205474607377043
O	5.672965725437705	4.378721256267049	-0.1297938062622958
O	5.606988965437705	3.227022426267049	-0.9990317282622958
O	5.578366895437705	2.8192955462670493	1.4786320807377042
O	6.7527126854377055	2.381788946267049	0.7916955707377042
O	7.795601545437705	3.3588358562670493	0.7609184507377043
O	-0.1767923215622951	-0.0465661537329507	13.996860540737705
O	1.828457485437705	3.162291976267049	14.340205640737706
O	4.650198845437705	3.142809826267049	11.789480240737705
O	6.452741875437705	0.7930743672670493	9.496656180737705
O	6.108209335437705	2.3698136462670494	6.041890810737704
O	7.690405055437705	-0.4189978937329508	3.9876769307377042
O	7.903822795437705	-3.8369626437329507	2.468337070737704
O	6.033072435437705	-5.6477285937329516	-0.29986518626229586
O	7.090257155437705	-8.55148114373295	-2.520578429262296
O	5.903231575437705	-10.40486399373295	0.6017921207377042
O	4.832362335437705	-8.93103849373295	3.945278620737704
O	5.374530345437705	-5.603684383732951	5.687092750737704
O	3.3438853154377046	-2.330292293732951	5.216562790737704
O	2.220417795437705	-0.3301900737329506	8.172498380737705
O	0.534088296437705	3.0040181662670493	8.724737250737705
O	-2.2160616245622955	2.1257009992670493	11.219293440737705
O	-5.289925084562295	3.352902776267049	7.101300630737704
O	-2.660758334562295	1.1659888512670493	5.456475110737704
O	-2.0109940545622953	-2.368121583732951	6.594005140737704
O	0.0317201217377049	-5.117795413732951	4.976989750737704
O	0.9075133504377049	-8.04007648373295	7.203193980737704
O	0.23731379443770492	-14.672795993732949	-1.5778660992622957
O	-2.0077069745622955	-12.991334893732951	0.9706979107377043
O	-3.9517854145622953	-10.47805859373295	-3.349457379262296
O	-7.302270704562295	5.13099859626705	-9.735211949262295
O	-7.1051883045622946	1.7394133792670492	-8.048295699262296
O	-6.0324964545622946	1.5285088762670493	-4.3933642092622955
O	-9.080319874562296	1.3230049159770492	-2.215214939262296
O	-9.336317164562296	-2.0920887737329505	-0.5430448052622958
O	-11.028271424562297	-2.2505910937329507	2.902997060737704
O	-10.707861324562296	-5.90339196373295	4.017048890737704
O	-8.662716154562295	-9.07646569373295	4.475470950737704
O	-4.903971594562295	-6.69489265373295	4.131386500737704
O	-6.2367377045622945	-3.1971056537329505	4.970352580737704
O	-6.704897964562295	-0.2575944037329507	2.554239330737704
O	-6.848055904562295	3.4927439562670495	2.195167990737704
O	-3.656608614562295	5.290704816267049	3.319102450737704
O	-1.781373784562295	7.760930066267049	1.0994973807377042
O	0.8295184214377049	9.86281267626705	2.813540800737704
O	2.8357448854377045	10.37336010626705	-0.3285162582622958
O	3.3584324154377048	6.736525326267049	-0.7325734022622958
O	4.554260275437705	5.40675902626705	-4.1358068892622954
O	5.087148345437705	7.35634925626705	-7.279131939262296
O	8.773357385437704	6.400879306267049	-7.045358189262296
O	9.112505585437704	8.076579036267049	-3.614693289262296
O	3.4315636054377046	-2.4689948837329507	-12.967829759262296
O	6.131757175437705	-0.025121943732950625	-11.860500959262295
O	6.612082995437705	3.3732155562670494	-10.199089689262296
O	7.175907615437705	1.6311482812670492	-6.896629489262296
O	3.6229636854377048	0.19729242626704924	-6.796498429262296
O	1.637480925437705	3.1356297362670493	-8.069404689262296
O	0.6214132674377049	5.418639466267049	-5.186050869262296
O	0.1438131434377049	9.22472355626705	-5.250380349262296
O	-2.9419275445622954	10.64758166626705	-3.558919199262296
O	-3.1534113245622954	14.02765270626705	-1.8456290792622958
O	-3.934697684562295	4.865189916267049	-7.870724399262296
O	-2.5374899245622955	1.4969761672670492	-8.885594709262294
O	-1.715701784562295	-1.0180331737329507	-6.172050889262296
O	0.1750242374377049	-4.418122803732951	-5.654814929262296
O	-2.356668274562295	-6.611895563732951	-7.474439059262296
O	-0.9041945585622951	-9.829932193732951	-5.962294069262296
