31

O	10.538694974171587	63.37835887397007	4.471092499995638
O	14.374958405720767	64.69079069142774	4.272330025239249
O	13.695322978913996	64.78889654790854	3.0876947887187174
O	12.380226087031163	64.59356034554902	3.2346487482346205
O	11.939260683187433	64.3230225898169	4.494274025469001
O	12.501574876038493	65.1890998522956	5.316273079595551
O	13.797860570358651	65.46608554726531	5.232831151164353
O	14.679770943673667	66.11162522927206	6.149451210445305
O	16.07259510644464	65.9787708302364	5.9638310456046675
O	16.686212088917834	67.04637037731213	5.451605819939172
O	16.96685794235897	66.68863917146508	4.129332043092843
O	17.02027117102054	67.78153783432411	3.3221057244598517
O	15.841753885384367	68.40813917827028	3.033452653654764
O	16.283137092943484	69.18227554091352	2.0053130706419187
O	17.51269867668459	69.86455714638001	2.0010460991080987
O	18.498700878462586	69.50567353004628	2.8746177762213425
O	19.65963259234177	69.83280376310763	3.59034247139399
O	19.84333410510635	69.17162464318454	4.725014040716563
O	19.733341183078796	69.38881589220641	6.133465341198146
O	19.395857802865347	67.96929941636583	6.8668937260952365
O	18.64774834893077	68.4260042905972	7.852555510303638
O	19.119298122098414	68.25630313026	9.238510174783393
O	20.538561974143192	68.2434410143409	9.21712741461507
O	20.911249820679	69.12211655352466	8.167359909054353
O	20.87614370976095	68.11609727157412	6.942233600222464
O	19.12109982790252	68.1284878418692	4.393521906869682
O	18.03373937855565	68.53369182973398	3.7614193136779344
O	16.36028964641424	68.3621807149522	5.678466722894127
O	15.517505231922936	68.11088151998526	6.788727278039859
O	14.61238469031801	67.10682147190919	6.981038211949679
O	15.626687339014117	64.7119917325109	3.8231327047406904
