23

O	16.648102582777625	26.07226475101291	48.50257920664634
O	16.571473471739175	23.028514684009014	45.65603745763587
O	15.75179960249111	22.125330266439935	49.58682784517676
O	11.195797108163722	25.763594950637575	46.93482852474557
O	14.56791659600431	25.37002511406609	46.771711557402
O	15.840177485105464	25.02279673691287	46.541136277164746
O	15.728617924377634	23.541669272699703	49.724549138647596
O	16.485116230761747	19.97533800220657	52.478517713522095
O	13.959938564657357	25.14365773564273	45.65362215381543
O	16.627406174326186	18.809047481377895	50.904462302557654
O	15.589119424101328	24.55885986366959	48.720522859249456
O	12.913069835016712	26.070809425398313	45.50428586312458
O	15.819165650043617	24.129620426899343	47.5456162174945
O	12.201900229825721	26.634299326619956	46.50025389849555
O	15.438749741509206	23.011983354713383	47.168879455420125
O	12.850675988575912	26.766127387241447	47.69198757030794
O	15.62299293595597	21.993656717854172	48.191291937982044
O	14.046937328602073	26.16707258541606	47.7418613214828
O	15.603277719755937	21.133785265422148	50.580414219529146
O	12.5795993767345	26.700826942877402	44.182477782153676
O	16.418878189162985	20.17870192063574	51.21683553253079
O	13.560472842634406	27.87114222777197	43.98735895021001
O	13.027985633314836	25.735448577708908	43.125710765851665
