24

O	15.877702409380772	22.054567177117185	49.42816367874833
O	11.043812336389774	25.9662411490871	47.1506218431497
O	14.476974755098064	25.320438658357077	46.73114965141765
O	15.634361559541608	24.683606715690757	46.499358663673554
O	15.801912067324954	23.348759972961744	49.81222259436638
O	16.222971002680172	19.15125199382988	52.7404312745026
O	13.74227762561694	25.212812401079752	45.64065591087768
O	16.162016591913726	18.343668846904812	50.75847472371297
O	15.81920067719074	24.286695282961226	48.778718811000424
O	12.719484532172652	26.174444967268197	45.6397637495722
O	15.48602450089242	23.856853037148987	47.572672616554804
O	12.142379164287588	26.722988175952693	46.7269744709136
O	15.278502208206367	22.60496751102199	47.282093626299364
O	12.926136416338402	26.796305016308974	47.86482374587669
O	15.140768698451284	21.759385120522243	48.37788754482243
O	14.170108325703241	26.26066502806463	47.68903027213498
O	15.364453685469057	21.17423737483254	50.49062107817708
O	16.46171418668135	20.601853301859126	51.07993954872679
O	12.296367020929672	26.803274446098058	44.33367104172248
O	13.384107135875297	27.81033681462769	43.920382905388934
O	12.567822052740876	25.73112169246931	43.27708808959014
O	16.615462712540566	19.288751490851613	51.59222713181129
O	17.061478710158717	25.760074413207704	48.44427630034683
O	16.274371470529108	22.243910975760937	45.62808811764326
