104

O	-2.058888002846575	-0.3367190171821921	-1.85625456039726
O	0.9271434471534248	3.478614852817808	0.67481330960274
O	0.03840863815342466	2.809079822817808	-2.22862920039726
O	0.32812925715342467	2.880514982817808	1.7378491596027401
O	-1.4684691878465754	8.656499362817808	1.0864995796027401
O	-1.0528395308465752	3.1254043128178077	1.6316385696027402
O	-0.4257916518465753	8.754881622817807	-0.68820429639726
O	-1.5884452928465753	4.185875162817808	0.89910021960274
O	0.8121770171534246	1.5482419968178078	2.10160934960274
O	-0.7445705580465753	5.2557878128178075	0.5824581816027401
O	0.41797549715342464	4.690272882817808	0.19348305160273999
O	-1.3299011838465753	6.516271402817807	0.25149117460274
O	-0.9486823668465754	7.855647612817808	0.24728655260273996
O	0.25490916115342466	0.7780748078178079	1.18692488960274
O	-0.32050054784657533	1.558245586817808	0.15274550860274
O	-0.6329367385465753	0.9283119718178079	-1.06107128539726
O	-0.8041425413465754	-0.41642503718219204	-1.16559071139726
O	-0.6242866015465753	-1.202705987182192	-0.03401308539726
O	-0.06705482684657538	-0.4713296071821922	1.02382104960274
O	0.1947415361534247	1.621953729817808	-2.01656438039726
O	1.4738418371534245	1.095538285817808	-1.90928670039726
O	1.9165859371534246	0.195633942817808	-1.03393743439726
O	2.8238555771534246	-0.911740767182192	-0.9202092853972601
O	2.9131636471534246	-1.760412277182192	0.23122380660274006
O	2.218405487153425	-2.9387601771821923	0.28822825660274004
O	2.5312523471534245	-3.994569497182192	1.1412003796027401
O	3.863107937153425	-4.016716167182192	1.5493901296027401
O	4.466982887153424	-2.7794450971821925	1.75411056960274
O	3.7718855071534247	-1.645633877182192	1.32717165960274
O	2.720785577153425	3.116818552817808	0.49094375060274004
O	-1.9824240228465753	2.090637605817808	2.90190939960274
O	3.1645851771534246	-2.735989907182192	10.94417624960274
O	5.422884467153425	-3.967139807182192	8.14014716960274
O	8.552414997153425	-2.355724647182192	9.49567776960274
O	6.6862250671534245	0.9276179988178079	9.72278284960274
O	5.372737027153425	0.5300252868178079	6.18657897960274
O	8.860476947153424	0.027470712817807996	4.78963009960274
O	9.624030917153425	3.397122872817808	6.33929038960274
O	6.908208657153425	5.424935392817808	4.63479051960274
O	6.525601877153425	3.446076372817808	1.46480924960274
O	9.312547017153426	5.388294662817808	-0.16045470939726
O	8.156194567153426	8.968713772817807	0.34900883560274004
O	4.644284507153424	7.597918892817807	-0.51099215939726
O	5.790097157153424	6.338529262817808	-3.92510322039726
O	7.887889117153426	9.459063852817808	-4.30881853039726
O	2.9843959471534247	9.762535642817808	-6.87742528039726
O	6.056388477153424	10.408757092817808	-9.12532085039726
O	4.166921167153424	5.561456972817808	-13.46307045039726
O	1.1132758471534248	0.9970220668178079	-13.75997105039726
O	1.4772534271534248	3.913166782817808	-8.91711886039726
O	-0.5251637308465753	1.614878691817808	-6.67353980039726
O	-3.8381806728465753	2.7923427728178076	-7.89768989039726
O	-2.9363648328465755	6.306001122817808	-6.86306377039726
O	-1.5569489928465754	5.430060722817808	-3.67964354039726
O	-4.592672452846575	3.461710792817808	-2.64467778039726
O	-6.831512692846575	6.117122782817807	-3.76488466039726
O	-5.0205405028465755	8.591128562817808	-1.62483705039726
O	-5.426584622846576	6.312300602817809	1.41829123960274
O	-8.943943382846575	5.340420862817808	0.7080732996027401
O	-6.9832923728465754	4.791929032817808	6.86800249960274
O	-4.070530282846575	7.131471672817808	7.08333515960274
O	-0.9520527568465753	6.522034112817808	5.13643305960274
O	1.6370288871534249	9.050829362817808	3.95633589960274
O	-0.7270935820465754	11.330258362817807	5.95434344960274
O	1.0189313571534246	10.222990872817807	9.16749375960274
O	0.23098511515342468	6.6130077928178075	10.11890414960274
O	-3.8902311528465754	1.866756709817808	10.40610714960274
O	-7.865283302846576	-3.201508667182192	8.44981334960274
O	-6.031455812846575	-5.9858124971821915	10.22947274960274
O	-2.866067582846575	-4.005202657182192	10.79950654960274
O	-2.6740564228465753	-3.3715153271821925	7.06162486960274
O	-3.8191624428465754	-6.888402987182193	6.20139116960274
O	-1.0647312328465754	-8.569938747182192	8.18606876960274
O	1.4953919871534245	-5.8267813871821925	7.752251779602741
O	2.0619190671534247	-6.965761867182193	4.16054295960274
O	-0.9783130388465753	-6.2655889371821925	1.91650336960274
O	-3.2496909328465753	-9.158196637182192	2.6327051196027402
O	-5.8072012828465756	-5.803698787182192	-0.68757308739726
O	-6.340823312846576	-4.181294487182193	2.72539434960274
O	-9.976296402846575	-5.421450837182192	2.55778861960274
O	-10.226863722846575	-3.902174987182192	-0.94394587439726
O	-8.775799332846574	-0.5245934671821921	-0.053239155397259985
O	-10.764914782846574	-0.4214424371821921	3.1468113996027403
O	-13.953882582846575	-1.293645737182192	1.2959593596027401
O	-13.167465482846575	1.411694987117808	-1.24010003239726
O	-12.493561982846575	3.851741952817808	1.5652735496027401
O	-8.379586382846576	-4.327473777182192	-9.85957582039726
O	-6.4446151228465745	-3.472111777182192	-6.72357000039726
O	-3.4835176128465752	-2.5152321671821922	-8.87592244039726
O	-3.5804935528465753	-5.931285987182193	-10.56657275039726
O	-4.081349932846575	-7.872409447182193	-7.36473213039726
O	-1.1992535378465754	-6.058831247182193	-5.6920419003972595
O	0.9235416871534248	-6.885235847182193	-8.78390457039726
O	0.016791099153424693	-10.537811237182192	-8.601129340397259
O	0.5523019171534247	-10.427323937182193	-4.86467014039726
O	4.035184407153425	-8.957374937182193	-4.91573278039726
O	4.0539569371534245	-14.479077837182192	-5.74179162039726
O	6.286656187153424	-13.395305837182192	-2.88812369039726
O	11.912679517153425	-3.971341757182192	0.71960214960274
O	13.014288617153426	-0.3796107471821921	0.10308400860274003
O	14.964198917153425	-0.03461702718219217	-3.19498571039726
O	12.387035117153426	2.359111922817808	-4.69995279039726
O	9.608711017153425	-0.08553545718219202	-3.97896580039726
O	6.613483627153425	-3.0900574971821917	-8.51486466039726
