95

O	0.15672298098648585	-0.5237721213108115	-2.4762349078108103
O	-2.872177779013514	3.9147156986891885	3.9462107221891896
O	-0.3222060660135141	2.6758218286891884	1.1592896821891898
O	0.7453007009864858	2.3248953486891883	0.43599809918918997
O	-0.022688689013514063	0.8188158536891885	-2.6178280278108104
O	-0.31753376501351405	-3.0849037613108115	-5.01292208781081
O	-0.29393486201351404	3.9679432386891884	1.5120075921891898
O	0.550809940986486	-1.4323376913108112	-5.6852392278108095
O	0.15894864098648598	1.7787001026891884	-1.69250212781081
O	-1.102608616913514	4.328975608689189	2.5448182521891898
O	0.247886080986486	1.3913454106891885	-0.43442862131081006
O	-1.922357317013514	3.4035869786891886	3.1418910421891897
O	0.334797000986486	0.14094199868918866	-0.1133573178108101
O	-2.133573754013514	2.2264996386891887	2.50247616218919
O	0.253265120986486	-0.7503010213108114	-1.13508914281081
O	-0.930239522013514	1.7864057936891886	1.9905771421891898
O	-0.45034466301351406	-1.3147751213108112	-3.49838500781081
O	0.14538415098648594	-2.0389711113108113	-4.534839187810809
O	1.1424863209864857	3.6150553986891887	-1.71620344781081
O	-1.069101919013514	6.286288528689188	3.1884293421891896
O	1.6336514109864861	0.10746785868918862	1.6172108721891898
O	-0.800731347013514	-6.256448361310811	-11.81285590781081
O	0.550398320986486	-2.7334601913108116	-12.00441890781081
O	3.8387326409864864	-7.086087501310811	-13.42638670781081
O	7.126249750986485	-7.829146441310812	-12.25338200781081
O	5.673151810986486	10.453127158689188	0.75760280218919
O	2.004420020986486	11.085117928689188	1.4956122021891898
O	2.9553557209864856	10.79551686868919	-3.7224917478108104
O	0.775064400986486	8.116766458689188	-2.16871423781081
O	-2.4029324390135143	9.979095868689189	-2.80083621781081
O	-1.332408998013514	9.983477308689189	-6.464133427810809
O	-1.023351629013514	6.185916698689189	-6.89021269781081
O	-3.490414619013514	4.966707958689188	-4.26470335781081
O	-6.274973899013514	5.308683178689188	-6.8375515578108095
O	-4.987427519013514	3.2588096886891886	-9.78176618781081
O	-3.807979049013514	0.8321269846891886	-7.04258526781081
O	-7.308169109013514	0.3428190086891886	-5.65720529781081
O	-8.625091789013513	0.31274289168918856	-9.21546076781081
O	-6.595386989013514	-2.716330211310811	-10.13696938781081
O	-7.899747019013514	-4.820933021310811	-7.10779807781081
O	-11.447593309013515	-4.045907191310811	-8.38841297781081
O	-10.188776769013515	-7.383406021310812	0.96562552218919
O	-8.977428389013514	-4.252715071310812	-0.75861830881081
O	-6.186290259013514	-3.3965168013108116	1.6556157621891896
O	-5.331814119013514	-7.095463461310812	2.11268642218919
O	-4.7231405490135145	-7.503241301310812	-1.59860834781081
O	-2.893937529013514	-4.270201751310811	-1.9646248378108102
O	-0.5804677750135141	-5.175000881310812	0.9069241121891899
O	0.029464660986485924	-8.654808811310811	-0.4789703528108101
O	0.921462370986486	-7.072704651310811	-3.87862238781081
O	3.372368610986486	-4.749047921310812	-2.13695920781081
O	4.852785170986486	-7.367103361310811	0.21134169318918994
O	5.928345460986486	-9.559122991310812	-2.67985645781081
O	7.914693420986486	-6.644864251310811	-4.05398759781081
O	8.656783580986486	-2.2930829113108113	-1.19279732581081
O	7.256263350986487	-1.1125142913108115	-4.46364707781081
O	3.856228010986486	0.3904573756891886	-4.70694395781081
O	1.666323490986486	0.43965900768918853	-7.8008903178108095
O	4.7639282909864855	-1.1883446313108115	-9.289631087810811
O	6.419579360986486	2.2749375886891885	-9.69154568781081
O	7.358060120986487	3.8201573386891887	-6.31819165781081
O	9.835319690986486	2.0094119166891886	-4.12572397781081
O	9.648994990986486	3.0979342786891886	-0.4857132368108101
O	11.483646190986486	2.4208386986891886	2.7432549321891897
O	9.900832890986486	1.3610927826891885	6.022303222189191
O	10.072461290986485	4.853695768689189	7.467342582189191
O	8.889332790986487	6.582420278689189	4.322448452189191
O	5.762833930986486	4.413767398689188	4.39077470218919
O	5.433033980986486	4.642267458689188	8.15618281218919
O	5.355326240986486	8.430729628689189	8.195098642189189
O	3.752785520986486	8.822759238689189	4.78715539218919
O	0.43772755098648597	7.801616498689189	6.31215451218919
O	0.362756560986486	4.084567398689188	7.27402708218919
O	1.042537030986486	-0.9865631513108113	9.259668132189189
O	4.270234860986486	-0.2323158413108115	7.39380240218919
O	3.4820776209864857	-5.133433301310811	9.31972389218919
O	3.6952028809864856	-5.134194541310811	5.59239317218919
O	7.4633282409864865	-4.847305681310812	5.67395918218919
O	7.6728290109864865	-7.756417631310811	8.07686939218919
O	5.380599260986486	-9.771650291310811	5.81756136218919
O	7.4870903409864855	-8.831285191310812	2.8128089621891896
O	-3.0045802890135143	-9.906196791310812	5.731208882189191
O	-4.8743953890135145	-8.417886491310812	10.633062292189189
O	-3.340214709013514	-5.669164141310811	8.493518062189189
O	-6.720261639013514	-5.127070421310812	6.91665101218919
O	-8.306053289013514	-4.662324261310811	10.34372759218919
O	-5.678146349013514	-0.26331231131081134	8.671675892189189
O	-9.444094109013514	-0.0020555613108115267	9.06483315218919
O	-6.357194639013514	3.3286001586891887	11.762260192189189
O	-8.262897479013514	5.182702678689189	9.05373518218919
O	-8.234365249013514	9.817668948689189	11.76054369218919
O	-7.765282639013514	11.733075708689189	0.36753181118918987
O	-8.626902509013515	10.628330808689189	-3.18392529781081
O	-11.938633809013513	6.360533678689189	-4.43769083781081
O	-9.917524249013514	5.829494998689189	-1.29885240681081
