21

O	15.968789369317035	22.09919759288768	49.862660283141416
O	11.150724629844479	27.416819513569518	45.552771440952306
O	14.314825909226782	25.230234227134606	46.566798051577464
O	15.573408148472154	24.813663368109786	46.79329482905169
O	15.631754427759393	21.807845075546698	48.576155301082395
O	16.33209199220712	19.724850788642456	52.59282830452751
O	14.133756688237588	25.524765985019556	45.270061070058595
O	17.149792902451477	19.13054417944776	50.87989310925909
O	15.495525125576817	22.66454848747051	47.54933011188106
O	13.099913710130298	26.355927451728505	44.97031502212355
O	15.422392835071259	23.947724469338343	47.83841962209234
O	12.305854301957153	26.862784998936664	45.969816074377164
O	15.563314342841386	24.38853755994823	49.045428750826076
O	12.377592917188341	26.28859867795162	47.19675674112098
O	15.808586661572487	23.44838543394441	49.99597986870986
O	13.683366161572552	26.006896581477648	47.49599929418783
O	15.668603965478248	21.050064331222142	50.78803803669782
O	16.519475108870868	20.182988448660847	51.458591898963576
O	16.163358062549428	22.656945534967758	45.58223865015888
O	12.746346073682734	26.824447782547498	42.9944735816155
O	16.483754292755318	26.33237274711516	48.782571663476766
