24

O	14.101924388283349	24.95184116121242	45.12423832147371
O	12.919367457910319	25.662315312440573	44.80373486841165
O	12.68000366824075	26.57562160998412	45.7563837708098
O	11.537437452534377	27.276906046005116	45.60545128874606
O	13.91201633163801	27.12228843732344	45.6548403380933
O	14.98503373621545	26.271184991315828	45.930363992330264
O	14.601180294489751	25.015966264718273	46.39253128173873
O	16.196320143542273	21.777375381060114	49.865080654016936
O	15.399314358943625	22.794650446513423	50.147057733540365
O	15.319762316164876	23.828807550039492	49.19938837305569
O	15.347339974359752	23.449753231812494	47.92211391236901
O	15.651165111914608	24.368900375535297	46.94504488617748
O	15.531095299444285	22.126419770458934	47.69355316195387
O	15.618489605148174	21.245569286041132	48.78336493067377
O	16.84005421947372	20.87649615364787	50.702371647824556
O	16.08346024966199	20.289544029216255	51.664369362741105
O	14.930334226721266	20.069354384165102	50.96621459607113
O	16.668479236228283	19.15185168395498	52.258615151159916
O	16.007508731305897	18.14208086512114	52.346995212112766
O	17.518080630343512	18.7663724906334	53.19926756987209
O	14.768249768378084	25.823146655601686	49.11283777747655
O	14.32283520904789	28.41990921363332	43.993001245092124
O	16.15954475376464	22.077015025576948	45.76578517121751
O	12.447534940238205	26.364393029732458	42.815876904200344
