94

O	-1.2360239749493143	1.8417556831593973	-1.7528546503287674
O	0.27422648055068555	-1.3354785578406028	6.026905889671232
O	0.9699143205506857	0.6085864861593973	2.5735427796712322
O	1.3382202305506858	1.2708330961593972	1.4582804196712327
O	-1.0909280254493143	2.6898754721593976	-0.6940719683287675
O	-3.2305840194493145	2.1536353421593972	-4.672194050328768
O	1.5939858005506857	1.0576725604593973	3.6826435596712326
O	-3.1503750694493142	3.9747388821593974	-3.7455730703287675
O	-0.23268104944931434	2.543622442159397	0.33606021567123245
O	1.4113857805506855	0.3092334181593973	4.8145707396712325
O	0.21669161055068553	1.3138334961593974	0.6191171536712324
O	0.6538344605506856	-0.8298294578406027	4.818750199671232
O	0.19127355055068573	0.4336573511593973	-0.3519591370287675
O	-0.06390664944931435	-1.1548922878406027	3.7034046296712324
O	-0.6639895024493143	0.6519192041593973	-1.3814443203287676
O	0.5508362305506855	-0.6891936178406028	2.5409926396712326
O	-2.4633687294493143	2.0039199311593974	-2.4821205203287677
O	-2.626755499449314	2.701300402159397	-3.7060159203287677
O	1.0680617205506855	3.867773972159397	1.2515109896712326
O	2.325479940550686	0.9405896271593973	6.565519869671232
O	2.0438026605506856	-0.6363113778406027	-0.2506404099287675
O	-7.858837679449314	5.485360642159398	-9.620700270328767
O	-5.799998149449314	7.983887192159397	-7.6844309603287675
O	-4.919322529449314	7.305627772159397	-13.213862020328767
O	8.071636760550685	6.865165442159396	5.302049209671233
O	5.492806850550686	5.8151216121593965	7.894619739671232
O	3.8420383205506856	9.934475652159398	4.970471879671233
O	1.9549487705506858	6.665361282159397	4.650218229671232
O	-0.4785297554493143	7.532176692159398	7.350685859671232
O	-1.2453291456493143	10.639775712159397	5.277110969671233
O	-2.2578222374493144	8.830880572159398	2.0474507596712326
O	-3.4814021294493145	5.510711752159397	3.4359877296712322
O	-6.905236859449314	7.104062012159398	3.9634755796712327
O	-7.744253109449314	8.490132372159398	0.5183256656712325
O	-6.1945335294493145	5.200357342159398	-0.7452783643287675
O	-8.677676499449314	3.064639102159397	1.2019330496712324
O	-11.408144499449314	5.531794772159397	0.3011383106712324
O	-10.980896879449315	4.931066332159397	-3.3868908603287675
O	-11.321255299449314	1.0411990735233974	-3.0473489403287677
O	-14.663414199449313	1.7059969711593972	-1.2688961533287675
O	-10.288238779449314	-7.277609477840603	-0.42909053432876754
O	-9.166458389449314	-3.8292153778406024	0.6252438076712324
O	-5.461960649449315	-4.570704457840602	0.9309521296712325
O	-5.581476369449314	-6.895778837840602	-2.0950949003287676
O	-6.878528979449314	-4.108732127840602	-4.284301110328768
O	-4.591728649449315	-1.5278040778406026	-2.8878230003287677
O	-1.5659399584493143	-3.741937797840603	-3.4484054303287675
O	-2.678204899449314	-4.561648797840602	-6.990964890328768
O	-3.033531329449314	-0.7775980378406027	-7.675958280328768
O	0.49136438055068554	-0.23870102784060276	-6.359333950328768
O	2.058558590550686	-3.2598503178406024	-8.073096700328767
O	1.0218579005506858	-2.0448738378406026	-11.503280820328767
O	2.9064982805506854	1.1682713481593971	-10.851356220328766
O	6.0818325405506855	1.6391622761593974	-6.685408570328768
O	3.7431993405506856	4.564907472159398	-6.497487890328768
O	1.2121479205506858	4.862857862159397	-3.7759503703287676
O	-2.0403869954493143	6.8177742421593965	-4.031547110328767
O	-0.5623656944493144	7.744511492159397	-7.420140010328768
O	1.6251556805506855	10.427741752159397	-5.740804130328768
O	4.396993690550685	8.912384892159396	-3.587312830328768
O	6.962545170550687	6.698380982159398	-5.2341764903287675
O	8.772462600550686	4.448705362159397	-2.7555237603287677
O	11.596577400550686	1.9455459961593973	-2.789014690328768
O	11.446386100550686	-1.5877645778406029	-1.4225811003287676
O	13.258326400550686	-0.6430399378406026	1.7634140196712322
O	11.322693800550686	2.556185822159397	2.3181557696712325
O	8.107757810550686	0.5381047701593973	2.2178333596712325
O	9.610354100550687	-2.3476438778406026	4.161718489671232
O	10.643579800550686	-0.1856480578406028	7.102257879671233
O	7.8473013105506855	2.3429138921593973	6.7280492496712325
O	5.463824090550686	-0.19680216784060267	8.234354809671233
O	4.770104760550685	-3.132678857840603	5.852083319671232
O	4.787005230550685	-7.472921937840603	2.5002854896712323
O	6.866587700550687	-4.841339627840602	0.7036309596712325
O	5.686103160550685	-9.379486187840604	-1.8198447003287677
O	4.165026650550686	-6.415144547840603	-3.5075909403287677
O	7.456672280550686	-5.468494617840603	-5.095612320328768
O	7.909404010550686	-8.997906087840603	-6.388932870328768
O	4.371713670550685	-8.920720837840603	-7.765113340328767
O	5.047804090550686	-5.558114667840602	-9.364004710328766
O	-2.7642038894493144	-10.829674587840604	-3.820503340328768
O	-1.6862522974493144	-14.214028987840603	0.31526592967123246
O	-0.5875198534493143	-10.604441687840604	0.7484139496712324
O	-4.001338979449314	-9.810797187840603	2.1362152896712323
O	-3.646245079449314	-12.578538687840604	4.725331299671232
O	-0.9399683954493143	-8.120599147840602	6.082216089671232
O	-3.8662365994493144	-9.124065487840603	8.283703249671234
O	0.9194185805506856	-8.583037387840603	10.463404979671234
O	-1.4003377414493143	-5.829927997840603	11.657914779671234
O	1.1836295405506858	-5.226044187840603	16.323294479671233
O	-3.0664289694493143	4.901825392159397	12.676285579671234
O	-5.723414079449315	6.836657412159397	10.727493779671233
O	-10.301295129449313	4.585520322159397	8.554093559671234
O	-7.325603079449314	2.274071922159397	8.522583349671233
