27

O	15.98474474604925	23.35450486023048	47.72647798531758
O	16.457848028335402	23.347193086684086	49.094609375802676
O	15.292875483359524	23.435519160202336	49.69396817381536
O	12.890701233120268	23.74848790879126	47.50984974336264
O	14.20653876320948	22.869510791572313	49.17357976587124
O	14.514168047547617	21.973475384251625	48.29018369917625
O	13.209519599599853	23.80773167557842	48.596319265688074
O	15.794542399180644	21.945614663444324	47.949469694178525
O	12.301898098539123	25.629983649044846	48.63988105306512
O	15.742796282256277	21.858295370606772	46.341183502168995
O	13.763883057501442	25.282362162601373	43.18695197584783
O	10.68273254456502	25.871427896057185	47.050271928975064
O	14.517769188120795	27.366913536145532	43.83271619624234
O	14.053899702574485	25.181365622285178	50.08834193743895
O	11.776156144769466	25.563543993041968	47.39861790654605
O	13.171664907351767	24.813064127370538	49.29318341922645
O	12.215825296203848	24.51874761615587	46.653609449668636
O	17.193640249787403	24.741381539655062	48.909916260963485
O	16.229830359858024	24.137364190403805	46.73963308363032
O	15.418532441916776	25.087796525156634	46.695181919054626
O	14.79599935013411	24.9877500067939	45.58931368414621
O	13.844330025160332	25.88168582124313	45.442340660621
O	13.404583940838473	26.33549795845254	44.11974045179223
O	13.429301281118837	26.721280495293065	46.32736942404284
O	12.607519693211096	27.83589795839348	46.146963661121674
O	14.15488008738131	26.756736934740918	47.45255035359374
O	15.176244788730429	25.859331023658306	47.63298577937101
