96

O	-0.770908088573611	1.0316768223083337	1.0100294435416661
O	-3.851428133973611	4.883362724308334	0.21355650954166616
O	-1.3684799339736111	0.4504700493083338	2.135053373541666
O	-4.75172150397361	3.706719384308334	-1.0477231914583338
O	-0.398738652973611	0.24056348030833374	2.9828849335416665
O	-1.8179842439736111	2.057223398308334	0.48245723654166617
O	0.5774977960263891	-0.2420956456916663	2.1787406735416663
O	4.24093219602639	-1.4796974356916663	-0.9838453394583339
O	0.5200252460263889	-0.6862642356916662	0.9030608935416662
O	-0.540921603973611	-0.18382138569166617	0.31931966054166616
O	1.507308626026389	0.7095291873083338	2.7613523735416665
O	2.203185926026389	0.8280214023083338	1.6015499535416662
O	2.3801513960263887	1.1546316581083338	0.3687847605416662
O	2.7499724560263887	0.2701344553083338	-0.5949126134583338
O	3.865171146026389	-0.49843523569166615	-0.14587060145833383
O	4.075220396026389	-0.7479401056916664	1.1708249135416662
O	3.128001356026389	-0.17381463569166633	1.9246695735416661
O	4.778497986026389	-1.7066505756916663	1.976775623541666
O	4.10504177602639	-2.7324313456916665	2.8212896335416664
O	5.396177116026389	-0.8691451356916662	3.1359362935416666
O	0.04392408202638898	-0.6448765656916662	4.2596292135416665
O	1.1965258560263892	-2.023409245691666	1.4557803735416661
O	-2.932964053973611	2.7248879543083335	0.3184935375416662
O	-3.598872353973611	3.7473442243083337	-0.30401108015833384
O	-9.210939833973612	9.658921304308333	-1.7132644264583339
O	-8.04620860397361	9.195115654308333	1.8178556235416663
O	-13.442526103973611	8.282752184308334	0.4913045395416662
O	2.8399046960263887	-3.4600935556916657	10.839148873541665
O	5.871352706026389	-1.8480587856916662	9.212820173541665
O	2.548541376026389	1.7703242533083339	11.225984273541666
O	3.061392886026389	1.7310501473083337	7.558263943541666
O	5.89632857602639	4.188327704308334	7.580425123541667
O	3.400658656026389	6.505261054308334	9.293928383541665
O	0.733968366026389	6.485675514308334	6.532550333541667
O	2.864202226026389	5.903326584308334	3.506760523541666
O	3.5420092360263893	9.557272864308333	3.148718213541666
O	0.02859867502638902	10.982103254308333	3.0844826735416664
O	-0.819135659873611	7.948655354308334	0.8388529635416662
O	1.813434486026389	8.969719484308333	-1.7551776964583339
O	0.8454882960263891	12.574403334308332	-1.2766732324583339
O	-2.689866603973611	11.923146634308333	-2.3684071564583338
O	-1.615274323973611	10.182104754308334	-5.697080016458334
O	0.4347905160263891	13.347547634308333	-6.458965496458333
O	2.2501111460263887	4.903741204308334	-11.528996926458335
O	2.520863686026389	5.741302914308334	-7.867375446458333
O	2.421952926026389	2.194174974308334	-6.585675696458334
O	-0.09559031897361103	1.1378420231083337	-9.241041906458335
O	-2.536052203973611	3.7564098943083337	-8.026165196458335
O	-1.968287783973611	3.157987094308334	-4.416005796458333
O	-2.563363653973611	-0.5917764556916663	-4.908718656458333
O	-5.700041073973611	0.033791064308333674	-6.879986916458334
O	-6.901451433973611	2.3214254443083338	-3.9963695164583335
O	-6.21836266397361	-0.4511160656916662	-1.516663706458334
O	-7.579691033973611	-3.328323145691666	-3.6198997464583336
O	-10.962143203973612	-1.6738461256916664	-3.8702520664583338
O	-11.166141503973611	-1.6243151356916663	-0.1145322764583338
O	-7.64143529397361	-4.231487445691666	2.812799093541666
O	-7.728462743973611	-0.7142532556916663	4.128055873541666
O	-4.824419863973611	1.5933724333083337	3.714527883541666
O	-4.815137153973611	5.327223384308334	3.526164883541666
O	-8.474285823973611	4.670604764308334	4.337277293541667
O	-7.65402037397361	4.1991649243083335	8.064602363541665
O	-5.68529142397361	0.9724775643083338	8.724824513541666
O	-7.25150343397361	-2.3642397156916664	7.820301383541666
O	-4.675698863973611	-5.157642855691666	7.392024703541666
O	-4.658270883973611	-8.878366065691667	6.732175883541666
O	-2.682139703973611	-10.635132565691666	4.008907213541667
O	0.022618559026388985	-11.736772765691667	6.414909213541667
O	0.25684411002638896	-8.441476185691666	8.240807503541665
O	0.931848606026389	-6.748110735691666	4.899690993541666
O	3.141346266026389	-9.572894865691667	3.681114813541666
O	5.4887099860263895	-9.340798565691667	6.653297363541666
O	5.023264156026389	-5.630235965691666	7.253585203541666
O	7.17255228602639	-4.868010885691666	4.231351293541667
O	5.52020181602639	-5.955550395691666	0.9539068735416663
O	3.063276856026389	-8.155263815691667	-3.432011556458334
O	0.556646196026389	-8.472427725691666	-0.5729872244583338
O	-0.923969652973611	-9.817575565691667	-5.5339054064583335
O	-2.8938807639736113	-6.9232543256916665	-4.2287707164583335
O	-5.036582173973611	-9.157483565691667	-2.073109616458334
O	-5.75503833397361	-11.358231265691668	-5.068697336458333
O	-6.633206823973611	-8.278763315691666	-7.107933986458334
O	-8.843136463973611	-7.031577445691666	-4.292379616458334
O	3.0197087560263887	-6.073690995691666	-12.826298026458334
O	2.648238136026389	-5.139474045691666	-9.156731886458335
O	4.3295846160263896	-1.842851735691666	-9.889887366458334
O	7.301410316026389	-3.654101835691666	-11.429440626458334
O	7.468784526026389	-3.694130595691666	-6.087229866458333
O	10.183835596026388	-1.7443240756916663	-7.8581798464583335
O	11.546816196026388	-5.581697215691666	-4.480733816458334
O	12.538559096026388	-2.191233195691666	-3.1024775164583343
O	16.60885519602639	-4.179444355691666	-0.23475118945833381
O	11.884140696026389	4.870632844308334	5.202750913541666
O	10.04247959602639	8.230380044308333	5.040756113541667
O	8.94284413602639	10.979709104308332	0.34095076954166614
O	8.92539162602639	7.252079224308334	-0.08910030645833383
