95

O	-0.7928141307972971	1.362162089454054	-1.998689062610811
O	1.6790622852027028	-5.823485858545946	1.5468234473891893
O	1.9151159752027027	-2.211231978545946	-0.10450573661081086
O	2.2432099152027027	-0.9624778885459457	-0.46030274061081083
O	-0.5854056597972972	1.069253796454054	-0.6837516576108109
O	-3.4612967947972972	3.4466768114540542	-3.320144772610811
O	2.928669305202703	-3.0679784285459455	-0.29227793561081084
O	-1.8402860947972972	3.3729777414540543	-4.463100732610811
O	0.32222960520270283	0.23436859045405417	-0.11720366161081086
O	2.866949085202703	-4.247308788545946	0.38202100138918915
O	1.064313585202703	-0.4444802285459457	-0.9279966316108108
O	1.782715545202703	-4.533840388545946	1.1702564973891891
O	0.9751103952027028	-0.2870623485459458	-2.235353842610811
O	0.6710832352027029	-3.769094138545946	1.0408913973891891
O	-0.0028997707972971964	0.5093113554540541	-2.7062100026108107
O	1.047170815202703	-2.4429652685459455	0.9191503673891892
O	-1.981461464797297	1.7618564514540542	-2.679088222610811
O	-2.308998164797297	2.997822441454054	-3.2418140426108106
O	1.5534674952027028	0.5343468824540542	1.634039527389189
O	4.415750135202702	-5.592869988545946	0.16736554138918913
O	2.873386125202703	-0.7233235585459459	-2.922023802610811
O	-7.458130094797298	7.486728871454054	-8.22697189261081
O	-4.088601194797297	6.513130621454054	-9.632280962610812
O	-5.265540694797298	11.939469861454056	-8.658957262610812
O	-3.336452714797297	14.307952561454055	-6.813664062610811
O	11.391137005202703	-2.182315048545946	-2.7259385426108107
O	9.530720505202703	-5.488113318545946	-2.859408892610811
O	8.870846635202703	-2.6554364085459454	-7.304834722610811
O	5.829014695202702	-3.281751308545946	-5.137141992610811
O	4.883239085202702	-6.421849278545946	-6.936959352610811
O	4.837282915202702	-4.261153548545946	-10.080355092610812
O	2.258596545202703	-1.6926759985459456	-8.879820862610812
O	0.28658673520270284	-3.772984968545946	-6.37759035261081
O	-1.8830494197972971	-5.017284158545946	-9.24838694261081
O	-3.091703324797297	-1.792054278545946	-10.881480512610812
O	-3.448383414797297	-0.5761374185459458	-7.251757142610811
O	-5.8571758847972974	-3.358539518545946	-6.321314222610811
O	-7.510838374797298	-2.9508947085459454	-9.712552982610811
O	-8.489407114797297	0.6126181558540542	-9.011204342610812
O	-10.225375114797297	-0.2689241995459458	-5.61761289261081
O	-12.328647994797297	-2.804064108545946	-7.611855272610811
O	-11.887787294797297	-3.5103869285459464	2.364025217389189
O	-9.212651404797297	-3.778904278545946	-0.28360717861081086
O	-6.219597824797297	-3.1579684585459455	1.956010247389189
O	-8.179514184797297	-0.5859950885459457	4.000070847389189
O	-8.840044944797297	1.4948899074540543	0.910883207389189
O	-5.3892701347972976	1.100809102454054	-0.46232982421081087
O	-3.873480174797297	2.2126120514540544	2.837474917389189
O	-6.225652744797298	5.180439201454054	3.0904191673891894
O	-5.218604814797297	6.2060287514540535	-0.48532837181081084
O	-1.555599775797297	5.9900510814540535	0.5017830073891891
O	-1.923510535797297	7.677876161454054	3.901980107389189
O	-3.363539064797297	10.813189661454055	2.345978077389189
O	-0.24722672379729715	11.097981061454055	0.21550533538918915
O	3.9402483752027027	8.048545901454055	1.136158507389189
O	3.1504155852027025	7.591180201454054	-2.500227452610811
O	1.884614265202703	4.336502741454054	-3.8294722126108107
O	-0.20452520279729713	3.9055951514540546	-6.964931652610811
O	0.4108037652027029	7.649439651454054	-7.185859312610811
O	3.897830065202703	7.011937691454054	-8.711306802610812
O	6.331178655202702	5.524291581454054	-6.158922102610811
O	7.170764415202703	7.533020931454054	-3.083047412610811
O	8.584491565202702	5.402362711454054	-0.26902429061081085
O	10.014256405202703	5.900706331454054	3.1883481373891893
O	8.887391875202702	4.122547671454054	6.342459987389189
O	11.784291905202702	1.6908151414540542	6.250397607389189
O	11.556448305202702	1.028033993454054	2.5373142473891894
O	7.929368325202702	-0.018333010545945827	3.017884927389189
O	8.659441125202703	-1.8135925185459458	6.270930367389189
O	11.304956005202703	-4.063559178545946	4.754838987389189
O	9.790863905202702	-4.163317948545946	1.2860537573891893
O	7.157346955202703	-6.557715158545946	2.584680777389189
O	4.669644465202702	-4.837750668545946	4.95124911738919
O	1.942781335202703	-2.1778435685459456	8.901238317389188
O	4.256527785202702	0.43528272745405416	7.389298007389189
O	0.6518400652027029	1.9523805414540543	11.003761687389188
O	0.012754157202702787	3.5167432914540546	7.674090447389189
O	2.766311975202703	6.054802251454054	8.188603177389188
O	1.345793895202703	6.971161781454054	11.56955498738919
O	-2.099382664797297	7.321023801454054	10.011235687389188
O	-0.6460192587972972	9.445707851454054	7.23228735738919
O	-7.8490456547972975	1.3491860274540541	8.748889287389188
O	-7.0218898747972975	-2.7170268085459455	12.287190287389189
O	-4.488006014797297	-2.3757989485459454	9.467319747389189
O	-6.707749404797298	-4.542607268545946	7.325859467389189
O	-6.724049364797297	-7.256537488545946	9.991859087389189
O	-2.184843754797297	-7.246906128545946	7.083818967389189
O	-4.448853544797298	-10.277826138545946	6.776109627389189
O	0.5565772652027029	-10.974256838545946	8.311203767389188
O	0.02363959620270284	-12.399073638545945	4.83400053738919
O	3.9010681052027025	-16.06803333854595	5.395335577389189
O	3.187481565202703	-12.518485138545945	-5.58541749261081
O	1.0791846752027028	-11.164491838545946	-8.465482762610812
O	-4.440316454797297	-10.639146138545945	-8.352810312610812
O	-2.801274344797297	-10.055310238545944	-5.0082470926108105
