94

O	-0.8540662082191777	1.8996574543972602	-1.9090047821672604
O	-0.9261735122191777	1.0248972454972602	4.129607447832739
O	1.305900743780822	0.9377727833972602	2.5315611478327393
O	1.6061461537808222	1.4173359183972603	1.3838427078327395
O	-0.9539075812191777	2.6101302363972603	-0.7491046911672605
O	-2.443986856219178	2.0776150763972603	-5.105892832167261
O	1.3485547337808224	0.6118964873972603	4.040516307832739
O	-2.3370187562191775	3.9552011263972604	-4.308683802167261
O	-0.38244691421917765	2.28936521639726	0.47606633183273944
O	0.3057641537808222	-0.33170780360273966	4.182997557832739
O	0.7541171137808225	1.5667247673972602	0.34848607983273944
O	-0.8713777752191777	0.039414496397260246	3.3117187878327394
O	0.5849992637808223	0.5468761023972603	-0.4887173741672606
O	-0.3779075082191776	-0.22116631360273975	2.0348352278327395
O	-0.2595188162191777	0.6957878963972604	-1.5444100721672605
O	1.0929312237808224	-0.41491983360273976	2.5502089878327396
O	-1.9435703462191776	2.0486078263972605	-2.8307444721672606
O	-1.9382165682191776	2.65210282639726	-4.111813852167261
O	0.37893829378082233	3.48566477639726	2.0016422978327397
O	0.34472948378082235	-0.5201993036027397	6.315591507832739
O	2.4321391837808224	-0.4877427836027397	-0.29772524906726056
O	-6.152719256219177	5.44704781639726	-10.80850957216726
O	-4.145469936219177	7.896387496397261	-8.75611729216726
O	-2.6567032962191774	6.818911546397261	-14.08302087216726
O	7.944124623780823	6.568783786397261	5.931112767832739
O	4.964639733780823	5.856161256397261	8.207747037832739
O	4.027957763780822	9.91530311639726	4.8842530878327395
O	1.9346381937808221	6.783590266397261	4.497566287832739
O	-0.7319600342191777	8.01464169639726	6.832451697832739
O	-0.9835025392191776	11.02864166639726	4.498156307832739
O	-1.7413202182191776	9.07630801639726	1.2782495978327395
O	-3.4574985262191777	6.03087828639726	2.6603878078327394
O	-6.758997696219177	7.873257826397261	2.6669536878327396
O	-7.033803306219177	9.07770644639726	-0.9296937151672606
O	-5.6215806462191775	5.602110526397261	-1.8029152121672605
O	-8.494344556219177	3.78751364639726	-0.07764217016726055
O	-10.881842236219176	6.38909261639726	-1.4490440921672605
O	-10.052413156219178	5.52019318639726	-5.013345542167261
O	-10.738169206219178	1.6946004553972602	-4.503591582167261
O	-14.213818066219178	2.71616281639726	-3.2123575221672604
O	-10.728289446219177	-6.507579133602739	-1.3583422221672605
O	-9.472111966219178	-3.0910160636027397	-0.34974761195726056
O	-5.9146968662191775	-4.105634803602739	0.4611321918327394
O	-5.8288207162191785	-6.578688263602739	-2.4174541121672606
O	-6.621384416219177	-3.8395995036027397	-4.8954041021672605
O	-4.302744716219178	-1.3450046236027398	-3.3367499321672605
O	-1.4292818322191776	-3.79519093360274	-3.3808296421672606
O	-2.1821937452191777	-4.7731286936027395	-7.0071903121672605
O	-2.1514178932191776	-1.02992919360274	-7.945248772167261
O	1.2225996137808224	-0.6732096336027398	-6.275218032167261
O	2.7332085737808227	-3.904341133602739	-7.565117772167261
O	2.2212897337808224	-2.84226380360274	-11.16755977216726
O	4.280652953780823	0.2579791963972603	-10.47513007216726
O	6.947935443780823	0.7544831253972603	-5.955366732167261
O	4.869138393780823	3.85509161639726	-6.230887072167261
O	2.052185273780822	4.537152836397261	-3.8849217721672606
O	-0.9768384782191777	6.685145456397261	-4.590562772167261
O	0.9724005937808222	7.28725839639726	-7.811024592167261
O	3.150755643780822	9.88084868639726	-5.977728192167261
O	5.487724613780822	8.27726757639726	-3.4118670121672605
O	8.067408783780822	5.80692574639726	-4.646504442167261
O	9.354036833780823	3.56870191639726	-1.8405246221672604
O	11.962076733780822	0.8735447563972603	-1.4100807121672605
O	11.367332633780823	-2.5469087836027393	0.11384333883273945
O	12.882838933780823	-1.5497350436027395	3.4381329078327396
O	11.184944133780823	1.8260103713972602	3.5910417078327397
O	7.842890613780822	0.04754293639726037	3.2047537578327394
O	8.856487433780822	-2.8237509036027397	5.469931437832739
O	9.691832433780823	-0.5512904536027396	8.39652253783274
O	7.176984013780823	2.1559958863972604	7.548591967832739
O	4.356150463780823	-0.07402506360273975	8.80323985783274
O	3.805693893780822	-3.1571076636027398	6.603814517832739
O	3.820514833780822	-7.651031123602739	3.4761728678327395
O	6.295934503780822	-5.28151736360274	1.8203668078327393
O	5.060829963780822	-9.87168311360274	-0.5858699481672606
O	4.0015563437808215	-6.921121363602739	-2.6049393421672606
O	7.527140413780822	-6.326471113602739	-3.8161641921672604
O	7.842658073780823	-9.954969513602741	-4.858020262167261
O	4.516880393780822	-9.69649471360274	-6.668639572167261
O	5.656315883780822	-6.501768793602739	-8.34873099216726
O	-3.1663735862191777	-10.81961201360274	-3.5696793321672606
O	-2.888613506219178	-14.014950313602741	0.8501519678327396
O	-1.5494578522191778	-10.47663711360274	1.2230188878327395
O	-5.037231416219178	-9.351679613602741	2.1268221278327397
O	-5.206679026219177	-11.93596591360274	4.904238207832739
O	-2.319437726219178	-7.621432063602739	6.331031367832739
O	-5.548089296219178	-8.21868541360274	8.19114307783274
O	-1.0446224432191777	-7.935145713602739	10.92474452783274
O	-3.2617356862191778	-4.96344116360274	11.68482642783274
O	-1.2293988722191778	-4.26866080360274	16.60084202783274
O	-4.152484786219178	5.90022105639726	11.91354482783274
O	-6.398292056219178	7.910680306397261	9.560088467832738
O	-10.885334246219177	5.909501646397261	6.930306167832739
O	-8.120085216219177	3.3680269363972606	7.3965612278327395
