21

O	15.949977232880284	21.895578872348143	49.96264855557319
O	11.007711518288925	27.371137743222388	45.68327931352576
O	14.338219610464597	25.272976735267036	46.60736859139059
O	15.51581199916292	24.63534685939658	46.82988646900769
O	15.696034162978938	21.576974783968243	48.66291018736762
O	16.56709346433851	19.7457987115845	52.7093411843633
O	14.149867961449578	25.60939161137291	45.30428705422493
O	16.588558876123887	18.626751568842693	51.000927682958554
O	15.595169251389198	22.439349663006915	47.626092555281005
O	13.056582238400225	26.43807663231593	45.065349545966136
O	15.427629713744059	23.735734752516763	47.86542552987493
O	12.211624674272127	26.85380950777095	46.09013557614095
O	15.40915286695379	24.117816011819343	49.11840680161346
O	12.277810676215378	26.213380239796564	47.29693668768165
O	15.604568926154807	23.211053983061884	50.11631231051564
O	13.1955306118879	25.203865338009184	47.348275520848006
O	15.606965288838502	20.862161685352874	50.905889465652
O	16.52556044886611	19.941067781897832	51.47963245780038
O	16.376523304379187	22.417785553291743	45.72056518975582
O	12.769362783344372	27.09374412665656	43.108253841556355
O	15.660065706528083	26.22092126085808	49.02941290799037
