21

O	15.954535540165756	21.978237444997305	49.85099287006407
O	10.917749432188746	27.330837548089068	45.5057879543974
O	14.256158522845945	25.34146523319319	46.54814574886082
O	15.443715596227472	24.756341361847575	46.803817804575196
O	15.611707417322277	21.686508786678857	48.56307049396326
O	16.595293292341587	19.81367431144546	52.590003123623
O	14.090850070870886	25.649253529460342	45.24461687121263
O	16.586804369813642	18.701264770106548	50.87420856419309
O	15.481284035260627	22.56826628009862	47.55082368546267
O	12.99455951711466	26.413376219834543	44.9462436256733
O	15.235710537392649	23.850145790988517	47.85234722702246
O	12.127295963043315	26.848546087832265	45.9105292781474
O	15.59370276093959	24.259221562181494	49.04517741932298
O	12.269322633494438	26.38908058006595	47.188626988419934
O	15.74737185149012	23.323987919846093	50.015062316509
O	13.59895926802806	26.086641275199096	47.482876170617565
O	15.636900013722428	20.94728398098355	50.80006806532208
O	16.53976047191423	19.99657947001452	51.34040003174754
O	16.17301951274137	22.54736539390697	45.600330329955725
O	12.661213343874412	26.91748012035281	42.96262036554927
O	16.48383573171775	26.1895577927665	48.78358995761855
