85

O	7.408543746947059	2.2192543009215684	4.511998133696079
O	6.883916786947059	0.8266423589215683	4.153081373696079
O	7.3330328369470585	0.6216941489215684	2.6960130736960792
O	6.6898161569470584	1.5778174559215685	1.772197273696079
O	5.427878296947059	2.1497920723215684	2.1774008336960793
O	4.975904686947058	1.8098498469215683	3.288758683696079
O	5.406779526947059	3.664602848921568	2.022214293696079
O	6.290277946947058	4.117840518921568	1.011302313696079
O	5.516210646947059	4.136451598921568	-0.16754192330392084
O	5.360085866947059	5.431816878921568	-0.8554240253039209
O	6.009434776947058	5.283337438921569	-2.233111596303921
O	6.173212166947058	6.6808605689215685	-2.7592690763039207
O	4.871137506947059	7.405488328921568	-2.955701206303921
O	4.1328911969470585	7.369059918921568	-1.6462763663039208
O	3.981791486947059	5.946090098921569	-1.111762823303921
O	4.534075616947058	3.077328514921568	-0.37570037660392086
O	3.5123906669470584	2.888503606921568	0.3612013896960791
O	4.896263346947058	2.0298467351215685	-1.289015226303921
O	6.159414486947059	1.3902310729215683	-1.6518790463039208
O	5.422781526947058	0.46082457892156836	-2.573321266303921
O	4.204264446947058	0.8412304489215683	-1.7833940763039209
O	3.9423551969470587	-0.06434144107843176	-0.6508037443039209
O	4.885376156947059	-0.32971645107843184	0.11950753969607913
O	2.6791987369470585	-0.6874127610784315	-0.49704123730392086
O	2.522499286947059	-1.4958496610784318	0.7157421536960791
O	1.7883195609470586	-0.6512424810784316	1.6761698836960792
O	0.4335567869470586	-0.6884402310784314	1.621642913696079
O	-0.4472170430529414	-0.17174810107843141	2.522149273696079
O	0.02563756994705868	0.5451443589215683	3.567769073696079
O	1.3694608539470585	0.6448620389215685	3.5844951736960793
O	2.2693880169470586	-0.061873331078431626	2.800070853696079
O	-0.9462485430529413	1.1086400489215684	4.464057483696079
O	-0.6690719830529415	1.7359088249215684	5.526345923696079
O	-2.339869633052941	0.9142753089215683	4.403230383696079
O	1.0427461109470586	-9.075610191078432	-2.989525576303921
O	-2.6895524630529417	-9.44387589107843	-2.762521666303921
O	-2.044417883052941	-2.7227481410784318	-7.803741266303921
O	0.28887706994705864	-1.5650473710784318	-10.55921653630392
O	3.0290405869470582	-1.2150408410784315	-7.9711984063039205
O	2.8455047869470587	-4.945185211078432	-7.248662896303921
O	4.157518496947058	-5.551114771078431	-10.76477883630392
O	6.057176656947059	-2.398459941078432	-11.74228213630392
O	8.137381666947059	-0.04108232107843168	-9.61803917630392
O	13.238103526947059	-0.4649116710784318	-6.695475726303921
O	13.99396602694706	-2.2941956010784317	-9.96879161630392
O	10.64910752694706	-4.082195691078431	-9.85048435630392
O	2.4839387269470583	9.584772498921568	-6.018226186303921
O	1.3146959759470587	6.217599498921568	-7.365349086303921
O	-1.6344623730529413	7.8629015589215685	-9.12903484630392
O	-3.7136144830529414	5.265858138921568	-11.01271993630392
O	-2.2011822330529416	2.3513035879215685	-9.09438322630392
O	-4.613765753052942	-9.955053991078431	3.177816373696079
O	-1.6592569030529412	-12.079690291078432	4.266191793696079
O	0.6006829609470586	-9.118830591078432	4.906115643696079
O	2.5331507269470586	-8.317854591078431	8.03310786369608
O	5.016318546947058	-2.419452461078432	10.96791436369608
O	7.935783016947059	-3.9143004710784313	12.74577696369608
O	2.2354315169470587	13.326058108921568	-0.8856058003039209
O	-7.265649983052941	7.6566439889215685	-4.436172336303921
O	-9.21392167305294	7.561536218921568	-1.2138571773039208
O	-8.02927347305294	6.979232968921568	2.339758333696079
O	-9.46476557305294	4.853308078921568	5.142576423696079
O	-8.666684733052941	4.182561618921568	8.78511520369608
O	-4.426544153052942	-0.9008373010784316	8.61277298369608
O	-2.9893179130529415	-2.7363669110784317	5.660798633696079
O	0.7606028440470587	-3.3534521110784317	5.740638283696079
O	3.5834429469470583	-4.895877541078431	3.661959493696079
O	2.2419298369470586	-7.903744091078432	1.7852098536960792
O	-1.3395059830529414	-6.588890341078432	1.6701119736960792
O	-0.5772798630529414	-4.360347111078432	-1.3047635023039208
O	-2.8838870030529415	-4.964660731078432	-4.274182686303921
O	-4.541166213052942	-1.4089810610784315	-1.276115971303921
O	-2.0574942630529414	1.1275867499215684	-2.7188207663039208
O	0.1843958939470587	2.896857823921568	-0.23234682880392085
O	0.7811732745470586	4.403902388921568	3.1725768036960793
O	3.3887917469470583	5.700103318921569	5.617791023696079
O	4.313665626947059	2.9214582979215686	8.01518634369608
O	1.3734758209470588	0.7662841389215684	9.09137915369608
O	-1.3335019530529413	1.6104766639215684	11.63663506369608
O	0.4252072669470586	4.816920828921568	12.70810436369608
O	-1.8035062430529412	8.319932178921569	9.15300601369608
O	-4.3179833430529415	6.575355608921568	6.849895923696079
O	-4.068166403052942	3.814110248921568	4.285463423696079
O	-4.527614063052941	4.927411968921568	0.719518853696079
O	-6.549594263052942	2.995630754921568	-1.8091246063039208
