91

O	-0.5248724032811322	-0.11087885066037745	1.767914941113208
O	-1.262351824981132	1.0578732973396225	1.654221304113208
O	-2.6758533239811317	0.9068476703396224	1.836235607113208
O	-3.480677773981132	0.1934060373396225	1.021594628113208
O	-1.0175987399811321	2.2207764223396227	0.7957647671132079
O	-0.5781070459811322	3.3206799423396225	1.4314212969132079
O	0.7115600960188679	4.035203082339622	1.3961342573132078
O	1.1207644760188678	4.284538902339622	2.8454256431132077
O	0.010012667018867882	4.056941582339623	3.747465653113208
O	-2.938178573981132	0.6980669933396225	3.2761545731132076
O	-2.916562483981132	-0.6494974976603776	3.692967883113208
O	-2.574191923981132	1.3290828643396224	4.322385633113208
O	0.29528358301886787	-1.8930240776603775	3.450581273113208
O	-3.112413523981132	-1.1045074276603775	5.068918693113208
O	0.8353426560188679	-3.1272234876603773	5.423258633113208
O	2.403726356018868	-0.24132440166037744	4.396203753113208
O	-0.6382808939811321	-3.0207932676603773	3.5371819131132076
O	-1.967348643981132	-0.9890277876603775	6.0025161231132085
O	0.9299561860188679	-1.9107577576603776	4.759794403113208
O	0.05185378001886792	0.3807315971396225	3.8726072031132075
O	-0.34623399798113214	-3.6963214376603775	4.8915005431132075
O	-2.3247019139811322	-1.5164684076603776	7.359204853113208
O	2.360126526018868	0.3766804681396225	7.2264980331132085
O	0.7134427260188678	-2.9155664276603774	6.813614243113208
O	-2.565516383981132	-3.030885977660377	7.321944943113208
O	1.3270601860188678	-1.7465066276603773	7.489178943113208
O	-3.631388113981132	-3.232356427660377	6.301591923113208
O	2.315937966018868	-0.9761623076603776	6.668712713113208
O	-3.521947683981132	-2.5358511876603775	4.991201433113208
O	1.8478452260188678	-0.9616019276603776	5.283055643113208
O	-0.2123772699811321	-0.5687901896603775	3.099467713113208
O	3.648042876018868	-1.5998151276603776	6.962120393113208
O	3.495371116018868	-3.0654276676603773	6.894714843113208
O	3.180634306018868	-3.711836327660377	8.059558163113207
O	3.031530376018868	-5.0924128976603775	8.003991823113207
O	3.138160256018868	-5.737495387660378	6.778097963113209
O	3.628268836018868	-5.061476837660377	5.667562793113208
O	4.146135796018868	-3.796882647660377	5.921309883113208
O	-11.202499323981133	-0.13754685066037747	-6.864783216886792
O	-10.604138623981132	-0.0661723786603775	-1.5875887768867922
O	-7.520347593981132	1.0380990483396224	-3.507707916886792
O	-6.163691143981133	2.5926918923396225	-6.669041716886792
O	-1.168834070981132	-4.115667317660377	-5.823467676886792
O	-1.544613043981132	-7.722175337660377	-4.7273252468867915
O	-2.109284653981132	-6.441522197660377	-1.216173386886792
O	-5.224005503981132	-4.5783330776603774	-2.310949076886792
O	-6.8183478039811325	-7.993012097660377	-2.982443196886792
O	-5.006034483981132	-10.479645667660378	-0.7460903468867921
O	-3.563787243981132	-10.037855367660379	2.728206943113208
O	-2.8803080039811317	-11.319117567660378	8.301842473113208
O	-5.851546313981133	-9.036145237660378	8.121773503113207
O	-8.244224523981131	-11.598923167660379	6.656218973113208
O	-8.272941623981131	-9.777947667660378	3.325598843113208
O	-9.168929813981132	-11.983529267660378	0.3782589731132079
O	2.724348756018868	-11.166312867660379	2.0448969011132077
O	7.494641786018867	-10.831882967660379	5.128333713113208
O	7.905985926018868	-7.718572307660378	3.067331493113208
O	5.307789426018868	-7.541573367660377	0.2882675431132078
O	7.8565761760188675	-8.622809187660378	-2.317065416886792
O	6.2552974760188675	-8.839946107660378	-5.798586956886792
O	3.237909246018868	-6.758544317660378	-4.760690936886792
O	-4.964445153981132	8.719599412339623	-5.921657496886792
O	-8.039061643981132	9.365240972339622	-3.786282216886792
O	-6.3508357839811325	8.289982502339623	-0.5620309868867921
O	-6.105307363981132	10.158533082339622	2.713823243113208
O	-1.6605436139811323	10.172417912339622	8.157981933113208
O	-4.061265153981132	10.845779032339621	10.990123003113208
O	10.797630776018867	-2.4915887876603775	-5.0572551068867915
O	10.523286776018868	7.666389992339623	-3.734419686886792
O	10.039651076018867	10.850938732339621	-1.7305891268867921
O	3.6114756860188684	10.804576832339622	-0.11676992688679211
O	0.9826149560188677	8.200424472339622	-0.8339383968867919
O	-1.2505456059811322	7.080303422339623	2.075218274113208
O	-4.1791757539811325	4.956666712339623	2.843669923113208
O	-6.445495103981132	4.584626742339623	-0.12527409688679203
O	-3.652461553981132	5.266614292339622	-2.640813136886792
O	-2.425717003981132	1.6723506723396224	-2.474239196886792
O	-2.315012973981132	-0.03762462866037747	-5.8109001968867915
O	1.9624927160188677	2.1540946723396224	-4.636815906886792
O	2.899222766018868	-0.7449928876603775	-2.3456161368867923
O	3.8282270060188677	0.2404216093396225	1.162223795113208
O	5.274978616018868	2.6571137723396228	3.7228517931132075
O	5.543025166018867	3.4963278723396227	7.429925013113208
O	2.984116656018868	6.163053242339623	8.194595983113208
O	2.566680526018868	8.805888702339622	5.4880649331132085
O	7.020747976018868	11.104463632339622	7.727233673113208
O	9.940037676018868	6.916772152339623	1.909173137113208
O	7.075623666018868	5.411250262339623	-0.027894306886792064
O	7.811784816018868	2.0433814923396225	-1.5475596168867922
O	6.667483456018868	1.0144574803396225	-4.969595276886792
O	6.481771376018868	-2.2310199876603773	-6.822049376886792
