85

O	-4.416426677835294	1.5740767108941176	6.047683233745098
O	-4.575976167835295	2.6111165408941175	4.193796933745098
O	-4.213587097835294	1.3930641908941173	4.801103373745098
O	-3.4570040578352943	0.3142101408941174	4.211070383745098
O	-3.4301659178352946	0.18608044539411742	2.8602760937450986
O	-2.4386293378352946	-0.6653080961058826	2.369438583745098
O	-2.167444147835294	-1.8824311291058828	2.896082463745098
O	-2.3431621478352946	-1.8394004991058828	4.268692543745098
O	-3.2739240878352946	-0.9317270691058827	4.7992045137450985
O	-1.3889361078352942	-2.8880170891058827	2.1647552537450983
O	-1.6425497278352943	-4.257629829105882	2.5180828437450984
O	-2.5494885478352947	-4.753073469105883	1.5210574537450985
O	-1.6259530278352943	-4.963011889105883	0.2928756837450984
O	-0.6901704868352943	-5.863703219105883	0.9870965790450984
O	-0.43924033883529423	-5.045376559105883	2.2598077937450984
O	0.6260592631647057	-4.080401909105882	1.7377006657450984
O	1.868938372164706	-4.343031269105882	2.5146466637450984
O	3.179010952164706	-3.946416799105883	2.0446747337450986
O	1.6625962021647058	-3.735481729105883	3.7983261737450986
O	0.6442846011647058	-2.7805963091058827	3.6228050437450983
O	0.5963111501647057	-1.7503553491058828	4.367575913745098
O	0.09438792216470576	-2.786679989105883	2.2465509237450982
O	2.4070653321647058	-3.961215079105883	5.003871363745098
O	3.6594273621647053	-3.2059343991058826	5.125246623745099
O	4.746079112164706	-3.6022150491058826	4.415764263745098
O	5.772355592164706	-2.7201305491058827	4.132365413745099
O	6.999052862164706	-3.0888246591058826	3.5579353737450985
O	7.930404062164706	-2.213345339105883	4.122023553745098
O	7.208569972164706	-1.1867599791058825	4.743400303745098
O	5.983250242164705	-1.7274643791058826	5.083352833745098
O	5.080922302164706	-1.5999033491058827	6.133251763745099
O	3.7951822621647056	-2.089303089105883	5.940383943745099
O	3.8947791921647053	-5.342804999105883	1.6951251017450986
O	4.278847422164706	-4.057257349105883	1.1521710467450985
O	-5.8436856578352945	-4.836647809105883	-6.109678596254901
O	-7.142736957835295	-1.5632565891058827	-7.431647596254901
O	1.1353975521647057	0.019031392894117427	-6.987067746254901
O	4.342273152164705	-1.9414393491058828	-7.508849176254902
O	3.493962192164706	-4.029375929105883	-4.460705246254902
O	0.33226244016470574	-5.275659369105883	-6.194015546254901
O	2.580414552164706	-7.0843782791058825	-8.657680866254902
O	5.904197212164705	-7.649077709105883	-6.899746956254901
O	6.645067832164705	-8.399769809105882	-3.2766949962549017
O	8.873908212164707	-11.401562929105882	1.0877472427450985
O	5.5369671421647055	-12.936152629105882	0.38289932474509847
O	6.584145322164706	-14.692898029105883	-2.8253795662549015
O	4.510740712164705	-12.314716929105883	-4.924107616254902
O	10.291174192164707	-3.4651965691058826	-1.3500303662549014
O	12.713828392164707	-1.2974536591058827	3.3182503037450983
O	9.688078192164706	0.9690514258941174	3.1241021337450983
O	7.932956372164706	0.5509557548941174	-0.2329626062549015
O	9.572213882164707	3.7153420708941174	-1.5614116362549018
O	8.538717292164707	4.381027780894117	-5.179642596254902
O	5.543387822164705	2.0290348808941174	-4.956417136254902
O	-9.980165697835293	7.059626200894117	-2.2858664462549014
O	-11.913738907835294	0.5651059278941174	-3.967953306254902
O	-13.450749207835294	-2.8700387691058826	-3.4439362462549017
O	-11.274383407835293	-3.6810903591058826	-0.4677091562549016
O	-9.623251417835293	-4.401448369105883	9.408341043745098
O	8.834314602164707	3.2515452008941175	9.002680313745099
O	7.773399912164705	9.907733410894117	-2.6291648062549013
O	4.9771377521647056	9.222385540894118	-0.10528868625490162
O	2.2956130921647055	11.286424370894117	1.5457371627450984
O	-0.24704093523529425	10.336380070894117	4.190081743745099
O	-3.962300637835294	11.080565470894117	4.513401183745098
O	-8.171467957835294	2.227033240894117	2.6047529837450982
O	-7.714237177835295	-1.4377159691058825	3.5919947737450983
O	-6.803998627835295	-4.820855069105883	2.1005320137450987
O	-7.951389327835295	-4.993132679105883	-1.5154446362549017
O	-7.744051497835295	-1.2259611491058826	-1.9878776662549016
O	-4.061745017835294	-1.2631944391058827	-2.7054147362549017
O	-3.009608327835294	0.25927018529411744	-6.021924566254902
O	-2.8964394278352943	3.4736306308941174	-2.2651702362549013
O	0.44777013616470573	2.0727581508941175	-0.9868850362549015
O	0.5554046121647057	1.0636723068941174	2.6581961237450984
O	-0.5836960588352942	1.3910190408941174	6.266066363745098
O	-0.6593860348352942	-0.2670318561058826	9.693869373745098
O	-4.046585607835294	-1.9141152691058827	10.187282443745099
O	-7.030531537835294	-0.0006759161058825791	8.743339593745098
O	-2.381537307835294	5.858145060894118	12.078339163745099
O	-2.680044427835294	7.2489391708941175	8.520920833745098
O	-2.871612747835294	5.669259000894117	5.086087023745098
O	0.2260883601647058	6.142446440894117	2.9908752137450985
O	0.09860429716470576	6.975987490894117	-0.6824335162549016
O	2.616358682164706	7.006475210894117	-3.4743890662549015
