86

O	-6.120676178386786	-2.989524247585715	1.574339042576786
O	-2.7036677283867854	-3.443341287585715	-0.24397311342321407
O	0.5110873416132147	-2.963152487585715	1.844676172576786
O	-7.097850788386785	-1.874518877585715	1.218868482576786
O	-2.4634832223867855	-4.516373337585715	-1.267521532423214
O	0.9193631016132147	-1.709886097585715	2.563777052576786
O	-7.236114078386786	-1.680167987585715	-0.23040277242321408
O	-3.803202638386786	-5.061221307585715	-1.679519337423214
O	-0.14948161838678553	-1.3911812775857149	3.570122672576786
O	-7.4461690483867855	-0.4184201405857149	-0.705828703423214
O	-7.3407374283867854	-2.712988197585715	-1.114409437423214
O	-4.670013968386786	-4.724502627585715	-0.4985221833232141
O	0.10271924161321455	-0.0030212645857149445	4.089021642576786
O	-7.9915364483867855	-0.1740147805857149	-1.957550097423214
O	-7.869466588386786	-2.482678967585715	-2.379128327423214
O	-0.9166936183867854	0.28937959481428505	5.060411722576786
O	-8.179206118386785	-1.2277492775857148	-2.840640447423214
O	-0.9216775253867854	1.4648489924142851	5.549368852576786
O	1.6095885616132144	-4.5159054175857145	0.11354489157678593
O	-1.6739119824867854	1.830316332414285	6.670893482576786
O	0.0516808616132145	2.431607282414285	5.289588362576786
O	-4.748684238386786	-2.694339037585715	1.052729802576786
O	-6.122327718386786	-3.057051677585715	3.034852322576786
O	-4.092834828386786	-1.845604157585715	1.7318488825767857
O	-1.7192591023867854	-3.618154447585715	0.8411787225767859
O	-4.068149198386785	-3.6090904675857147	0.18495487357678597
O	-1.8568495343867855	-4.471613847585715	1.7701579225767858
O	1.7119133016132146	-3.618924317585715	1.293435202576786
O	-0.5817994083867855	-2.788666567585715	0.925698922576786
O	2.715278731613214	-3.930545537585715	2.175532662576786
O	7.892621251613214	-5.650404477585715	-0.8027383734232141
O	9.909510381613215	-2.482449837585715	-0.901656879423214
O	3.8913226516132147	-0.7734085875857148	-6.549107047423214
O	1.9141393316132145	-2.7092593475857147	-9.145534917423213
O	0.2058614816132145	-4.6018211375857145	-6.305837837423214
O	3.5951954616132147	-6.004236137585715	-5.271262597423214
O	3.6717778516132142	-7.931841647585715	-8.539829327423213
O	0.05153263161321453	-8.321057387585714	-9.646987067423215
O	-3.0951585583867853	-8.807658627585715	-7.611078207423214
O	-7.965608278386785	-11.479720017585715	-6.120698057423214
O	-5.201810508386785	-13.109699017585715	-4.135682777423214
O	-3.758227628386785	-15.044342717585716	-7.065038567423214
O	-0.6557825263867855	-12.867889417585715	-7.114893347423214
O	-6.720556168386786	-3.6828697275857145	-9.102555477423213
O	-11.596668768386786	-1.260551887585715	-7.470274267423214
O	-9.202499538386785	1.022321212414285	-5.680478637423214
O	-5.604869908386785	0.34849467121428507	-6.764147367423214
O	-5.610161708386785	3.441322562414285	-8.984298687423212
O	-2.2522148953867855	3.852514212414285	-10.782918677423215
O	-0.4652364083867855	1.4716944224142852	-8.405201377423214
O	8.718439981613214	6.439532482414285	4.422009912576786
O	11.187409881613215	3.575344442414285	4.896168242576786
O	10.910905781613215	-0.18738896058571491	4.859106392576786
O	11.397623681613215	-3.5984711575857147	6.458246702576786
O	7.698673531613215	-4.195044317585715	6.9751756725767855
O	5.915436321613214	-5.135519537585715	10.164427322576785
O	-0.6165372383867853	-4.289064787585715	12.596030322576787
O	-12.668044518386786	3.657858022414285	-1.047821903423214
O	-3.1809119983867857	9.536613822414285	-8.675314107423215
O	-3.0893288983867855	8.983513732414286	-4.8880589574232145
O	-2.2989878553867853	11.104019182414286	-1.876309527423214
O	-2.5092759413867856	10.264068932414284	1.8213665125767857
O	-0.12325820838678547	10.993135382414286	4.687922352576786
O	-0.09276837838678542	10.462912582414285	8.445613752576786
O	2.498709651613215	4.424239022414285	9.266135232576787
O	3.6006197616132143	1.945000592414285	6.675760592576786
O	2.4829939216132146	-1.6481699975857147	7.195937372576786
O	2.6675329816132143	-5.102887477585715	5.554434452576786
O	6.048622581613214	-5.517354957585715	3.906119772576786
O	6.531550841613214	-1.763427177585715	3.314924732576786
O	4.4148312116132145	-1.827142667585715	0.18060459557678588
O	6.105046771613214	-0.517841491585715	-2.9149054974232143
O	3.534001931613214	2.938332762414285	-0.4796660947232141
O	0.2341229916132146	1.6687149724142851	-1.951898097423214
O	-2.4801775613867854	0.8517916884142851	0.5356688265767859
O	-4.2252575983867855	1.4167773024142851	3.8170182425767862
O	-6.734352228386785	0.03775832341428503	6.293839442576786
O	-4.809143948386786	-1.671285497585715	9.032853922576788
O	-1.6479006985267854	0.09297962841428503	10.149032122576784
O	-5.032699558386786	3.235453732414285	13.148174722576787
O	-6.9120528883867856	6.275555312414285	9.017750212576786
O	-4.093771318386786	7.419647282414285	6.687572682576786
O	-1.6013134895867853	5.611449922414285	4.484550032576786
O	-2.2041935393867855	6.014047282414285	0.7951380225767859
O	0.5621999416132144	6.614723952414285	-1.703491387423214
O	0.8080879516132147	6.480990562414285	-5.443897097423214
