33

O	16.050085966485575	-12.058356992740356	21.627933636926812
O	16.543101112371367	-11.123082140958926	20.77309781742869
O	16.715806011479764	-13.40950622432307	21.90752239663515
O	13.70295063395088	-14.173035364084555	20.83326068999353
O	16.38764322803554	-14.228403619488155	20.61843097729204
O	15.360461251977389	-13.439019844444399	19.757724672579347
O	14.279745526625142	-12.863652278010054	20.48980097713352
O	14.307320812716766	-12.47496372828096	21.91689546920692
O	15.300788392546835	-13.599425637550585	22.51685809236953
O	19.378511257646267	-14.193839793390502	22.96364171642851
O	19.596575111125418	-14.746438357149852	21.769134187764088
O	19.019202957993187	-15.842352667940625	21.627660504868608
O	19.622708578838783	-13.732637197495396	20.819387618158505
O	19.524305327933735	-12.597427811978545	21.392966289487887
O	19.40779903458027	-12.851133429257697	22.72465676318161
O	20.1991613585086	-12.28400690852612	23.539746850979455
O	19.521779406452445	-14.139723290883316	19.41767151262245
O	18.876898365204756	-13.042845336863852	18.665705202648756
O	19.547802221303108	-11.929451879431607	19.140720188443854
O	19.070200821985836	-11.509910736088816	20.52714037465392
O	17.648871120078944	-11.75493805105761	20.262480717299276
O	17.136435349379607	-12.168853108988795	19.173700127650303
O	18.574830504069748	-14.632902743762692	24.049602159625103
O	17.74980852304586	-15.845808934049018	23.84302868554224
O	18.643834080392253	-16.806893351266808	24.970042919137644
O	17.968316166383048	-17.11393591196477	26.247081221550072
O	18.829607433946954	-18.0909385329729	24.23982453581314
O	20.230091833022197	-16.215513930198412	25.28374907594613
O	20.566060585019184	-15.186707313659817	26.156958125904573
O	21.568179394944714	-14.260772855871853	25.950060865757745
O	22.546043734634157	-14.579851334176803	25.05323259233116
O	22.14957610933854	-15.350816962780542	23.99751235152522
O	21.130640063253615	-16.2508532491653	24.21920323389643
