35

O	18.111053430085278	-16.43429451223623	24.27874368213308
O	18.47095664397065	-15.178038000336668	23.976376601131463
O	18.826536201302723	-12.947989479322846	24.6346361142492
O	19.88387349275493	-12.367139294791158	25.399506812454018
O	19.77024448247975	-12.69710228298571	26.76115219806107
O	18.71167016153646	-13.569924803646101	27.137136653570963
O	18.58578083046153	-15.948590066776585	26.561530581249535
O	18.251386668612003	-16.82929957295265	25.539859035591174
O	18.91743776413431	-14.320842683563288	24.93206563605144
O	18.500926986850747	-14.585937227849954	26.244291987499395
O	16.856847128237803	-17.096037763037874	23.20099691671933
O	15.814967860120795	-17.55343864505616	24.067302443156592
O	17.689696459880814	-18.02077806273836	22.46348516679003
O	16.210453738470644	-15.729293537851245	22.302972837090746
O	17.563080189048154	-15.3404703314864	21.814943330265685
O	17.95251767300349	-16.42487828452611	20.881582982495036
O	16.732604182279193	-16.93358258943885	20.36006979467489
O	17.73595959810165	-13.936924552664191	21.536717509881367
O	16.883575328312798	-13.14926768816093	22.062444742477275
O	18.79159566359707	-13.432676496380259	20.75765825942868
O	19.710667909375093	-14.295965297619208	20.020679271500224
O	20.91674240798964	-13.416996972639131	19.87508026163097
O	20.36893526920575	-12.033257216487847	19.682989588292457
O	18.92743597401167	-12.13705030257863	20.087942469460742
O	18.124893969693805	-12.293023582898895	18.793020835603627
O	16.833799310497003	-12.77181214451579	19.21126011735827
O	16.36751532643301	-14.08989767884706	19.016511429207984
O	17.007876510247947	-14.87600358270851	18.312142459076725
O	15.082689543584399	-14.442954523053118	19.638096704028392
O	14.226932379375343	-13.2523079049705	19.973729969176105
O	13.304686617908319	-13.507268366434705	21.159387748641453
O	13.018250837952596	-12.258044517175259	21.814253775150807
O	12.05150627414891	-12.047638544248258	22.629732025999765
O	11.13610519517318	-13.131636481890013	22.828280713607782
O	11.476503420140165	-10.740348302455317	22.76004177397498
