66

O	2.33014795574359	-1.1841310723589746	1.7023308870641025
O	1.8158426157435898	0.29648171764102527	1.0023756070641023
O	1.9875601557435898	1.5979560196410252	1.2783847270641022
O	1.8914465457435896	2.6765914736410252	0.46134975506410225
O	1.2458338457435898	2.5901944146410254	-0.8206255959358978
O	0.9375098857435897	1.3204979136410253	-0.9796687989358978
O	1.1720908857435899	0.2670854376410252	-0.17059261393589778
O	2.31710898574359	3.3157335476410252	-2.1061763929358976
O	2.37189887574359	2.976996858641025	-3.7075484129358975
O	1.0460960957435899	3.297139017641025	-4.2591727029358974
O	0.6351019937435899	2.6142304126410254	-5.214599462935898
O	1.0462803657435897	4.676781457641026	-4.704394742935898
O	-0.30946504385641016	5.115510627641026	-4.763521632935898
O	-0.30690547275641017	6.283455337641025	-3.8628413329358975
O	0.025671359743589806	5.4617877876410255	-2.5813172429358975
O	-0.9924243172564101	5.685764237641026	-1.736183422935898
O	-0.7029999042564101	5.014471847641025	-0.5225229079358977
O	0.4457169247435898	5.462415017641025	0.02583641806410225
O	1.4415058557435898	5.6988035876410255	-0.9202227749358978
O	1.19003637574359	6.215788957641026	-2.209855942935898
O	0.8661970757435897	5.932778917641025	1.2671266970641022
O	1.1434361257435899	7.251320247641026	1.2478878470641024
O	0.14122059274358983	8.079642977641026	0.5524302780641023
O	2.15018493574359	7.491811407641025	0.20694831906410227
O	-1.4019268942564103	4.2309852376410255	-4.318474772935898
O	-1.0687096392564102	3.3642061576410254	-3.4346056229358974
O	-2.58212577425641	4.925043177641025	-3.8434058629358976
O	-3.43739203425641	-0.6742300823589749	8.200096957064103
O	-11.076828714256411	-0.5791821323589748	-4.065700772935898
O	-8.494573044256411	-2.897291772358975	-2.5164985129358977
O	-2.29768144425641	-6.302445952358975	-10.498128802935897
O	-2.27051665425641	-2.619148202358975	-9.681745962935898
O	-5.640928134256411	-2.870984452358975	-7.963180472935898
O	-7.11033962425641	-3.635739222358975	-11.399075102935898
O	-4.072582044256411	6.862710977641025	-13.395024502935897
O	8.37184540574359	-0.21451570235897455	-10.338536012935897
O	5.37407092574359	-2.5721450923589746	-10.207194052935897
O	7.47929261574359	-5.625675632358975	-10.734733302935897
O	2.3375314757435897	-7.024393412358974	-9.125561212935898
O	-9.64527837425641	-2.2777384823589744	5.6858815970641015
O	-7.328291544256411	0.4514048776410253	4.579732197064102
O	-6.61770898425641	3.753362457641025	6.257320687064102
O	-3.09325131425641	6.610640357641025	9.245166017064102
O	-1.1475677452564101	8.155710157641025	6.502151167064102
O	-3.0226837142564102	11.421928317641026	6.888128617064102
O	8.186629955743589	-3.7486072223589746	8.741732467064102
O	2.28057118574359	-0.8841681123589749	7.9679529070641015
O	-0.23735377025641016	-0.9800383023589747	5.141616757064102
O	-1.8037991942564102	2.1011380736410254	3.659630977064102
O	-4.703624424256411	3.130153362641025	1.213279247064102
O	-7.178555494256409	0.5009904976410253	0.8699921870641022
O	-4.869146474256411	-2.3031272323589747	1.9311938770641022
O	-3.3729048342564103	-2.5976866523589743	-1.5518966429358976
O	0.3993513687435898	-5.6791578623589745	-0.40917321243589777
O	2.07130038574359	-4.078667002358975	-3.3946357429358978
O	3.76477272574359	-0.6667139823589747	-2.8100677929358975
O	5.491326625743589	1.9623770886410252	-0.49558145193589775
O	6.128127085743589	5.520981407641026	0.2017505710641022
O	4.0414973957435905	6.961491177641025	2.9616841370641023
O	2.56652291574359	4.681933367641025	5.500212377064102
O	4.41410895574359	3.6042321076410255	8.650599617064103
O	7.252777635743589	6.077654847641025	8.081293587064103
O	9.25878156574359	-0.5483111523589748	4.609745057064102
O	6.17800604574359	-1.9569642523589748	2.936306967064102
O	6.78345059574359	-3.8987494523589747	-0.21627582593589778
O	5.04104269574359	-7.161027712358975	-1.0224585909358979
