35

O	12.194855127530221	-11.175197991279335	21.707065563505363
O	14.83273979183421	-11.360344529621958	16.89135821095102
O	16.03858721362433	-9.371775771924483	17.501035638110434
O	13.29414641038327	-10.252897248655204	21.408481447603666
O	13.667570958736217	-10.089976380589984	19.966800455665467
O	14.831377315700475	-10.83638869788265	19.406403695506782
O	16.03612401740488	-10.856037428373162	20.17674656066241
O	16.844333925768648	-12.013099474298837	20.160830053586416
O	16.692710262932746	-12.783551644370181	19.193478965461612
O	18.224602610030082	-11.89131572771121	20.710749933606742
O	19.162365271213826	-11.883725759553455	19.535841992034626
O	20.369733909185346	-12.606090414875775	20.064350036445795
O	19.757672962698177	-13.651412063480288	20.95273021714356
O	18.5101785011983	-13.114482133306925	21.45607768634738
O	17.84651046634032	-13.385437672595959	22.705311315736818
O	16.610353803456363	-13.217638374593228	22.69136583929819
O	18.325972096612556	-14.615765424727257	23.410190721551153
O	18.44677877710956	-14.492529935163864	24.88314794078475
O	17.498160160824746	-15.701140060994259	22.953356390125393
O	17.871831971972256	-16.27787530626206	21.696410257628855
O	19.052631673156277	-16.740639032186362	21.656450789701356
O	16.91472105730711	-16.592539280058254	20.619907784539098
O	15.868393467304397	-15.521202282133338	20.543319964863674
O	14.651356485872805	-15.886048107332583	19.743665493748704
O	14.34925900592888	-14.953933356090488	18.6394125713027
O	13.814666751481035	-13.857316672843481	18.79242450868861
O	19.90753831966521	-14.438835151866908	25.20880918475914
O	20.407418191470306	-13.788085576948605	26.30510047943899
O	21.744129017080056	-13.9133046867316	26.662304099155104
O	22.61891937058708	-14.551593619744057	25.79197956186865
O	22.023649862120184	-15.384888579810292	24.853038340651903
O	20.845646197243838	-14.905959974428509	24.293389906873582
O	15.07137545747416	-10.34140946847683	17.93726808392999
O	11.376810670916262	-10.922325762768292	23.41803632016383
O	13.278862450763903	-12.780084553276208	22.026065079092103
