44

O	17.630833180336555	-15.905877559961459	24.993319716729015
O	16.296276752357134	-15.4218174990875	17.21562169430287
O	17.369109565705926	-14.39159366002984	17.295226040258612
O	18.470835827989724	-14.267700710248462	18.304202826591947
O	18.06889730402249	-14.61224696850358	19.70044506685711
O	16.714875484297593	-15.139032157257791	19.512149100968077
O	16.28316159743177	-16.118970127899527	18.537014896177777
O	14.98388098642815	-16.513703467552887	18.791600300121264
O	18.309916517686794	-13.553732188983469	20.60407913116045
O	18.252454529981357	-12.33626862817909	19.84377144267873
O	18.697721035337842	-12.796737006497233	18.50052011628879
O	16.839406624968973	-12.055299817780169	19.646978096602542
O	16.35658319505628	-10.77977633911069	19.940081049013227
O	15.436697803421525	-10.3094624507181	18.943403465455233
O	14.015008367501329	-10.336571488748907	19.53912489162551
O	14.102453063608191	-11.654249237350578	20.32393378975872
O	12.794828076766382	-11.340128260457707	21.120976553875938
O	12.967217247933535	-12.547439069327734	21.971007445893793
O	13.922680002013479	-11.644774170635825	22.64829756492578
O	14.98862922235136	-11.584200124504115	21.535808278418724
O	13.822531015803492	-13.76094466028636	21.936012957704328
O	13.119757263744354	-14.721202232673011	22.5528800922899
O	13.916113827892516	-14.204873754172183	20.563496144866885
O	16.143498682507175	-12.796526112182828	18.965336217807106
O	18.218604262795637	-13.28134514640649	21.980187286198934
O	18.36216631235016	-12.143870475328736	22.45261328625423
O	17.76291771192691	-14.076925646896289	23.09275801506136
O	18.449006217433546	-14.470665950407774	24.292508876223188
O	19.88884332509346	-14.857347566851244	24.101000837771352
O	20.17360865656717	-14.617851637456482	22.64593209113281
O	20.136640441686822	-16.336980959269592	24.363378906832565
O	16.89891831533747	-14.822295904883006	22.28246651097656
O	17.123546859301108	-16.21813717874469	22.531621383359095
O	17.637608106354254	-17.304915954671095	21.715976927964526
O	18.612297826462406	-17.260620584333843	20.812268111342853
O	19.900297335641078	-17.566774641874968	21.151139301642385
O	16.44742601805047	-18.022925144967424	21.192948564992584
O	15.888040444761495	-18.650049048304453	22.27584336086594
O	17.565409849660128	-19.295113840249524	23.11424947561679
O	16.592631411580697	-20.881595333755918	23.3824993805089
O	18.270942436090085	-18.927927194722134	23.557288394784553
O	17.914194797849447	-20.124862951390366	21.265058637842543
O	15.824463523442661	-16.0925525138182	22.396075039592247
O	15.033133631178604	-14.836116050445929	17.035126235699835
