81

O	-1.5360259311333342	2.190381254192982	3.115627368000001
O	-0.7068579281333341	0.570005635192982	-4.380598571999999
O	-1.6829436621333342	1.359957490192982	-5.078869092
O	0.0415094508666658	-0.22671326580701812	-5.403246611999999
O	-3.166629229133334	4.606704844192982	-4.918466422
O	-0.9290400951333342	-0.29481836580701803	-6.549779921999999
O	-1.5899903161333342	1.051842765192982	-6.482287981999999
O	0.1857818308666659	1.539838196892982	-3.6698811019999997
O	-4.859847839133334	1.484983447592982	-6.019027821999999
O	-6.096379999133334	0.674917026192982	-5.778526572
O	-2.391615141133334	2.431049576192982	-4.444182391999999
O	-3.292560289133334	3.206286144192982	-5.318350001999999
O	-4.705187869133334	2.677621414192982	-5.0642317519999995
O	-4.948549099133334	2.059643686192982	-7.3978778919999995
O	0.6116424608666657	2.5381692341929822	-4.284835481999999
O	0.47064414086666595	1.227125355192982	-2.3244669019999993
O	1.186943430866666	2.171613035192982	-1.5195497319999995
O	0.4834497808666658	2.825319814192982	-0.40624635299999945
O	0.40050632086666593	4.215869744192982	-0.3649731849999994
O	-0.7457715481333341	4.7220038041929815	0.24518146800000062
O	-1.1936237071333342	4.201387104192982	1.4568671080000006
O	-0.6194706591333341	2.979249124192982	1.8082838580000005
O	0.06455729086666584	2.281290312192982	0.8086544280000003
O	-2.2656541561333343	2.710804094192982	-3.227929101999999
O	8.979916890866667	-2.498831655807018	-1.5291869799999995
O	9.031778890866667	-3.589531665807018	2.0600825580000004
O	2.1045424108666655	-7.495137305807017	-0.7181486769999994
O	0.9829930508666658	-9.157725995807018	-3.9439973419999994
O	1.0143941708666657	-5.746169855807018	-5.601930661999999
O	4.761239130866666	-5.480172525807019	-4.962405351999999
O	5.244123770866666	-8.342707225807018	-7.4107027919999995
O	2.2104506008666656	-8.296245765807017	-9.706996422
O	0.19055933086666577	-5.381754955807018	-11.026842312
O	-2.263336252133334	-2.249164975807018	-15.173632342
O	1.234292730866666	-0.9157816058070178	-14.735681942
O	2.9413503008666657	-3.842209585807018	-16.492187142
O	4.401620310866666	-5.059356375807019	-13.212657642
O	-5.737513319133335	-6.485387385807018	-8.765511762
O	-9.658823039133333	-3.2243645358070183	-5.042987982
O	-6.463665949133334	-5.1438871158070185	-4.230963252
O	-8.454046759133334	-7.660903205807017	-2.1823093269999996
O	-6.178665329133334	-10.381904795807017	-0.7437147639999995
O	-3.030063179133334	-8.322281265807018	-1.3133302709999994
O	4.397740530866666	0.611706092192982	10.422708058
O	8.034095550866667	0.715772236192982	9.286638858
O	9.723502690866667	1.267315171192982	5.959286678000001
O	12.170702990866667	3.1151954641929818	3.725715138000001
O	9.468155990866666	4.747848324192982	1.6461104680000005
O	9.022056490866667	8.410604624192983	0.8460491680000006
O	3.5593590208666654	12.506764004192982	-0.8305565319999995
O	5.236833340866665	14.926949104192982	-3.1601847319999994
O	-13.109615809133333	1.812288528192982	-3.2006162919999994
O	-9.509826929133334	-8.863215295807018	4.173512488000001
O	-8.479535509133333	-5.217766185807019	4.715320828000001
O	-8.362902219133334	-2.901399155807018	7.693898068
O	-7.448096629133334	0.783501777192982	7.865744798000001
O	-5.286395679133334	2.739853434192982	10.304499858
O	-4.311882509133334	6.368686894192981	10.825225657999999
O	1.092523500866666	7.221636274192981	7.119457688000002
O	2.8459169408666654	4.7758052341929815	4.863903198000001
O	3.7955131308666656	6.061783244192982	1.3945034580000006
O	5.5500424108666655	4.9747620741929826	-1.8918092209999995
O	8.252209280866667	2.473439148192982	-1.0507195639999996
O	6.570619280866666	1.269386728192982	2.1798384980000005
O	4.250457670866665	-1.0619048858070181	0.2944873780000006
O	4.475444040866666	-4.690881025807018	1.4473456380000005
O	6.071726760866666	-3.882561355807018	4.7714166780000005
O	0.9864708008666658	-2.1566753858070182	3.834477228000001
O	-1.4270437015333342	-2.438965605807018	0.8705298880000008
O	-2.915757409133334	0.766192073192982	-0.5478335709999995
O	-4.087974879133334	4.342205954192982	0.06178721800000053
O	-4.952954619133334	7.581545434192982	-1.6876453639999995
O	-1.978931633133334	9.903773364192983	-1.5089095169999995
O	-0.05008490913333419	9.786308754192982	1.7572880480000006
O	-3.935500339133334	13.194146104192983	3.635897958000001
O	-7.817072389133334	9.404976144192982	4.271837508000001
O	-6.436965279133334	6.241656514192982	5.952730188
O	-3.822281629133334	3.677478884192982	5.026343608
O	-5.239584039133334	0.28359022419298197	4.1300304080000005
O	-3.6296408691333344	-2.9387126658070177	5.2480465380000005
O	-4.012471209133334	-6.539572445807018	4.286748008000001
