74

O	3.4667900258769233	-1.983713193096153	5.05144968228846
O	4.817915985876923	-2.991394933096153	2.7744895022884606
O	3.5260620258769233	-2.146535883096153	2.924669532288461
O	2.3989866758769236	-2.8799130830961532	3.473811662288461
O	3.897134315876923	-1.2177162730961528	3.860653522288461
O	2.9987372058769233	-4.307474693096153	3.6576716522884607
O	2.1945009058769234	-2.517788603096153	4.8042601122884605
O	4.108577795876924	-4.298495803096152	4.70686477228846
O	5.286465275876924	-3.638995223096153	4.045569522288461
O	-1.1814523251230766	1.9432536569038472	3.648775392288461
O	-2.0421858641230766	3.604584056903847	5.261917432288461
O	-0.5221446751230766	2.002045276903847	2.3300843922884606
O	-2.6113599841230766	3.9104814369038468	3.073403012288461
O	0.9415050758769234	1.8356548869038471	2.527535792288461
O	2.5902809558769233	0.4912944469038471	3.847570112288461
O	1.4342812558769236	0.5191656769038471	2.984789432288461
O	1.1074481858769234	-0.8003062030961527	4.719286042288461
O	0.33880498987692337	0.11935939590384709	3.9751588422884607
O	-0.2806437305430766	1.307028815903847	4.652749882288461
O	-2.120568404123077	2.977457516903847	4.011717082288461
O	2.2817081458769235	-0.18716355909615295	5.041781802288461
O	3.3048400858769234	-0.8099557230961529	5.91832195228846
O	-8.989676124123077	-0.7123825330961528	2.2140154842884607
O	-3.5522682541230766	-9.992087603096154	-6.750471247711539
O	0.06132794187692342	-10.897929903096154	-5.97538430771154
O	1.3235862458769234	-10.291749003096154	-0.796766337711539
O	0.0410572218769234	-7.148797323096153	-2.537251837711539
O	-2.070947964123077	-5.603617983096153	-5.228671887711538
O	5.116126645876924	-1.2863914230961528	-6.1512112177115394
O	8.828066415876924	-2.0090010630961532	-5.730976817711539
O	8.316745025876923	-2.469291533096153	-1.9992571377115391
O	5.988943205876923	-5.396327073096153	-2.712837567711539
O	8.991863105876924	-7.283818003096153	-4.02624973771154
O	12.684270985876923	-6.616361993096152	6.412495002288461
O	12.058800685876923	-9.054168343096153	1.595163625288461
O	11.564525585876924	7.291475816903847	1.676794759288461
O	10.460290485876923	4.712631086903848	-0.905076687711539
O	11.176349585876924	7.180990206903847	-3.7307528377115395
O	10.431007985876924	5.620183076903848	-7.145184287711539
O	8.342433035876924	2.828527086903847	-5.6387829377115395
O	7.599942505876924	1.017064776903847	-8.868632407711539
O	-8.176506114123077	2.8400994469038467	-4.922128627711539
O	-9.070050874123076	-0.8711803630961528	-4.845700547711539
O	-7.672705894123077	-3.8766121930961535	-3.025386257711539
O	-8.032712304123077	-6.876914863096153	-0.7199210677115391
O	-6.075546954123077	-5.3244330230961525	2.116877605288461
O	-7.159853264123076	-4.981439403096153	5.714259732288461
O	-8.692991094123077	-1.616110333096153	9.654613312288461
O	-5.328306604123076	-0.5318787290961529	10.902014532288462
O	-5.672383714123076	-2.835973263096153	13.877748392288462
O	-10.346252114123077	9.720094436903846	-2.558189277711539
O	-7.593983494123076	4.865451216903847	2.888104202288461
O	-5.499887594123076	2.005726696903847	1.610551588288461
O	-4.0154419641230765	-0.3347594060961529	4.268825082288461
O	-1.8517043241230766	-3.509290303096153	4.61320857228846
O	-2.4593402941230766	-5.738641033096153	1.635376486288461
O	-3.4632052341230763	-2.8878269330961532	-0.702789597711539
O	0.09572920487692338	-1.980985293096153	-1.5034794177115391
O	1.0065959958769235	-2.017100383096153	-5.204679057711539
O	-2.5539273641230764	-1.7488997930961527	-6.2993519177115385
O	0.39135876587692336	3.061938306903847	-7.181159207711538
O	-0.3596573847230766	2.396696516903847	-3.4528369177115388
O	3.0572617958769235	3.0448724969038468	-1.9140752377115393
O	3.0673023458769233	4.105390206903847	1.6907903632884609
O	1.4141532358769235	5.570389476903848	4.725050512288461
O	1.3784369058769235	6.216394816903847	8.481062672288461
O	-1.2242956101230766	3.855271156903847	9.970075912288461
O	-4.4522100841230765	3.619244536903847	7.918700442288461
O	-7.264732224123077	6.128104636903847	7.726835252288462
O	-5.763937834123077	8.249690006903847	10.51147069228846
O	-1.9699051041230766	7.791267736903848	1.6909591672884607
O	1.0054862158769236	8.239094786903847	-0.5715903977115391
O	1.1094779258769234	6.994138306903848	-4.1079171477115395
O	3.8012907258769237	6.539232256903848	-6.68828145771154
