31

O	13.89334147930694	-11.432935487062409	20.632472401560644
O	13.136312900265024	-10.26423515775346	20.587593216008294
O	12.223862132062584	-10.672950714050803	22.831874611857778
O	12.35193752036993	-11.95308062996763	22.284090449681322
O	12.558650467255175	-9.837627617137521	21.805004654732507
O	13.507729381685692	-12.34051106538428	21.61535858018629
O	17.50222037298695	-14.452636418129881	21.593651347784327
O	16.86182005752556	-13.605968203996504	20.744011551960817
O	15.037909207369903	-15.037590496114937	20.973443024504142
O	15.996565503736862	-16.107543710008045	20.906028578055114
O	15.528246251517801	-13.883831532516133	20.430919803297048
O	17.313493639700148	-15.792038475563471	21.22716340232881
O	15.06195749256737	-13.222746006131601	19.216092062631134
O	14.735139767930933	-11.844778665271622	19.577868029485863
O	13.87433288788305	-13.788210694762814	18.55752023226614
O	13.62873355400475	-13.380677831170704	17.404982886771272
O	13.19769767289024	-14.788134032113843	19.219026431660456
O	11.141275153356666	-10.440964782005192	23.790328969599308
O	10.68482284438914	-11.429321824845408	24.454630186171595
O	10.722926687278632	-9.223734409000354	24.357307647903014
O	15.645428806189988	-17.499742297154043	21.33446997050544
O	16.63314044977662	-18.407085997197022	20.608444750687163
O	18.476956082817217	-14.007951682349926	22.42903841973638
O	19.38610450541651	-15.041631078868976	22.868944124417887
O	18.827485272308593	-16.151936386365207	23.68663817854195
O	19.464219412337833	-16.291472798841234	25.041841270896256
O	17.338797219970004	-16.14157171723403	24.022115419120794
O	18.99568500503648	-17.415946440920642	22.8372346416881
O	20.298520822602498	-17.5138433199664	22.249546666292744
O	21.16935063033096	-16.603063909697312	22.99117430327285
O	20.383091726585803	-17.127220600702938	20.86822060535817
