35

O	17.832251923483128	-16.322640865560096	24.37283862666008
O	16.10778819438622	-14.516645150806418	21.912178336870106
O	17.158847788137706	-13.549790163640619	21.874225162656312
O	16.94695444547606	-12.449412751984482	22.506551115424347
O	14.908175787289414	-13.817295133351426	21.762107978736886
O	13.901092124816842	-12.787480248373637	21.60293160663889
O	12.952191831604846	-11.7826021428072	22.093175634587826
O	11.81564338632247	-12.060965277680177	22.87612741651145
O	11.198026220737683	-11.477079527866387	23.816560917133806
O	10.23567141256037	-12.299195808929365	24.517540582277803
O	10.937221016165523	-10.099152743303799	23.964497952952623
O	16.8435292762811	-15.51537221261382	25.126869061894205
O	15.69365965598376	-15.643232413415177	22.614913409000177
O	16.722633612355736	-17.922745966763593	23.081069451398644
O	17.474029935997876	-14.159063624537986	25.102909156785326
O	17.667938462394552	-13.295513527691053	20.54115612022318
O	16.427402131313425	-17.167890488440886	20.720496788215147
O	18.883742066042966	-13.719804574694948	24.72111723804817
O	19.506255311697466	-14.798121506399589	23.858875429064625
O	20.46209159926336	-14.464232947066753	22.92227058844586
O	20.552189089979848	-15.369254726432505	21.88112357304834
O	19.44384430582127	-15.965846660001032	21.29134742215665
O	18.412950594448485	-16.229543279678634	22.10495734129774
O	18.39413644035161	-15.457900909281182	23.28192900901703
O	18.261856411927827	-15.077722952951152	26.265185016739373
O	16.866157341310043	-12.655552546926423	19.543435490494577
O	15.676371195769619	-12.829986734953678	17.561140511912804
O	17.926613395571277	-11.998942066075315	18.59473245598093
O	15.408564455137565	-14.66334551327008	18.76667473672385
O	18.799573163128425	-13.185804987872716	18.36263073642969
O	19.82020610930986	-13.117869644766078	19.499489285983557
O	18.991146316420036	-12.666144894285052	20.699707455906367
O	16.024744403713065	-13.437445202351135	18.634205589433996
O	18.10385021096609	-14.540894390609147	18.53267195647617
O	16.768259198594524	-16.879757760119038	21.98154800572948
