88

O	-0.10361678510203998	6.098389518775509	1.332211361857143
O	-3.2953147421020397	3.886009418775509	2.7530211918571426
O	-1.5430507031020397	6.197975718775509	1.694116681857143
O	1.3397166548979604	2.395758688775509	1.182202681857143
O	1.06518870489796	5.324261218775509	1.567236611857143
O	-8.50161806510204	2.505208706775509	-1.7148071281428572
O	-5.423150625102039	3.775918468775509	1.7648519218571428
O	1.4422299648979604	4.116545388775509	0.7123211748571429
O	-6.9417757251020396	2.290499408475509	3.600176631857143
O	-6.637621235102039	5.491997508775508	-0.9773721191428572
O	0.6146017748979604	3.911104018775509	-0.3871583041428571
O	0.6400506648979603	5.196428728775508	-0.8420988121428571
O	0.31585918489796017	6.314401958775509	-0.021937511142857122
O	-1.6685427511020396	2.803073196775509	-1.027423548142857
O	-0.3624105751020399	2.434917581775509	1.006375251857143
O	-0.47970290510203983	3.0293986407755087	-0.2520220751428571
O	-1.5700424841020397	2.438978761775509	1.9511693318571428
O	-4.120135265102039	2.974455174775509	-1.4798111681428572
O	-2.57954818410204	1.878291389775509	1.2871104318571427
O	-2.91498453210204	3.559941838775509	-1.021241244142857
O	-3.9401592251020396	1.951089729775509	1.710237751857143
O	-3.22495693910204	4.745968878775509	-0.4180289551428571
O	-4.33501075510204	3.099295420775509	2.341120001857143
O	-8.57963713510204	1.443528122775509	0.36641990785714285
O	-5.39145261510204	4.925952298775509	-1.272747708142857
O	-2.0416134461020397	3.3250324187755087	2.9129498218571426
O	-5.18161182510204	3.7281520487755087	-1.900457488142857
O	-6.86927732510204	0.9551305187755088	3.132019011857143
O	-7.1673903451020395	1.390437346775509	-0.2217936981428571
O	-6.44487670510204	4.41879352877551	2.455261771857143
O	-7.73517704510204	4.612598948775509	-0.7355403851428571
O	-7.60936512510204	1.378797887775509	-1.6899176981428572
O	-9.123162205102041	2.630702102775509	-0.42163230014285713
O	-7.34283750510204	2.135021105175509	4.963194011857143
O	-6.26588144510204	1.170650668775509	5.466819591857143
O	-6.10114081510204	0.26204020877550893	4.253122631857143
O	-4.3099951551020395	5.532179178775509	-0.6952559241428571
O	-7.71664043510204	3.6815145287755087	-1.944113578142857
O	-7.43897216510204	3.365750028775509	2.8546783718571427
O	0.5540659048979601	-3.823007951224491	9.981659461857143
O	2.8983098748979605	-3.847184421224491	7.001851891857143
O	1.19501061489796	-7.402149821224491	-0.5493036431428571
O	-2.24818236710204	-8.930518511224491	-0.8013853621428572
O	-3.72544298510204	-5.640130981224491	0.5010395248571429
O	-1.8212658931020398	-6.08652308122449	3.7527185818571427
O	-3.92605633510204	-9.15943991122449	4.472280101857144
O	-7.141817575102039	-8.82418351122449	2.469084971857143
O	-9.12984073510204	-5.712125081224491	1.6639574418571428
O	-13.77010750510204	-2.3189808212244913	1.558161151857143
O	-12.18771931510204	-1.7886066812244912	4.921237881857143
O	-13.27008960510204	-5.15603919122449	6.402116371857143
O	-9.65933036510204	-6.351804251224491	6.381528651857143
O	-9.23392500510204	-10.092392711224491	6.332109851857143
O	-9.04552999510204	-5.348601641224491	-4.795338058142857
O	-10.538360805102041	-1.607135101224491	-8.845211338142857
O	-6.8327991251020395	-1.0279744312244912	-8.884604808142857
O	-5.01603646510204	-3.557689871224491	-6.704777118142856
O	-3.8676071051020395	-5.53218860122449	-9.771141318142856
O	-1.8121444221020397	-8.59199501122449	-8.723633418142857
O	-1.1834569251020397	-7.2243299112244905	-5.221788188142857
O	10.41569429489796	-0.17512326122449107	5.768451611857143
O	9.29655139489796	0.9946067087755088	9.186965521857143
O	6.528194734897959	3.114977756775509	7.8298322818571435
O	5.8778124748979605	6.771594188775509	8.500443411857143
O	2.72836027489796	11.97612639877551	4.841321221857143
O	1.2305117348979602	13.93035418877551	7.7464606118571435
O	2.69298447489796	-2.9059683612244913	-11.675963938142857
O	10.32042049489796	7.720664538775509	-7.626838148142856
O	8.847150694897959	7.342836398775509	-1.248925708142857
O	7.06862915489796	4.629299898775509	0.6420647658571429
O	4.30397665489796	5.5400869187755095	3.0342610718571428
O	1.95337508489796	4.042485488775509	5.723981771857143
O	3.4580426648979605	1.0601090987755089	7.198756371857143
O	5.80359369489796	0.37540245877550893	4.252184081857143
O	3.2525631948979603	-1.617295301224491	2.357418291857143
O	4.13965547489796	-5.059046891224492	1.413807181857143
O	5.23968471489796	-1.773268011224491	-2.070553328142857
O	1.6023817848979602	-1.746352101224491	-3.270204238142857
O	0.1958528048979602	1.6254178837755089	-3.742711638142857
O	0.19446816489796026	5.442767288775508	-4.282570948142856
O	-1.4972715781020398	8.835083498775509	-3.795705848142857
O	-0.055373085102039976	10.746110148775509	-0.7582676421428571
O	3.57693102489796	10.001891758775509	0.0853139268571429
O	4.18970287489796	14.149655688775509	-3.492202558142857
O	5.0161854248979605	7.90389394877551	-7.899313758142857
O	4.894079034897961	4.8862482787755095	-5.632515008142857
O	3.5250129048979604	1.820787505775509	-7.319754668142857
O	4.96315556489796	-1.610344621224491	-6.906297328142856
