22

O	16.37524610784934	-15.412551718296527	22.985230225798677
O	12.158241589264332	-8.204621702798326	24.235386820369598
O	18.656271566181147	-15.064317790997219	23.64956604862376
O	18.28022934081387	-12.929797920098672	21.12338475240613
O	19.03687627795917	-11.547868055370989	19.33965812920502
O	20.032366302833168	-12.686731078609876	19.52593637799245
O	19.241223616884525	-13.659805963538563	20.345404018894083
O	16.62793262229198	-11.765661364380593	19.97318132329443
O	18.04217868324981	-11.67489901101715	20.457005024597677
O	17.487399420029412	-13.367379048639666	22.216729796828666
O	17.606221202322466	-14.761011385266986	22.650319873554935
O	19.926100082967505	-14.32753834676721	23.240461810284202
O	16.256656666524492	-12.774151117094924	19.344925598882497
O	15.797602365238824	-10.673954212521691	20.29020618972328
O	14.377386838360689	-10.711776132679766	20.08306603699161
O	13.508510594213465	-10.64823896698532	21.26139786613488
O	12.661340677228637	-11.690833612801578	21.51679495820028
O	12.191895596755254	-11.880563465422803	22.811211369757704
O	11.86595219267295	-10.779510930493652	23.589098739236352
O	12.408954937896834	-9.58635552520785	23.204416500085877
O	13.204325746014455	-9.545528577941761	22.054313388793222
O	16.47172092737602	-12.72981773003502	22.632943173385815
