35

O	17.41905321914748	-16.481825549674035	24.028480569473533
O	15.807855210054973	-14.478685338482379	21.532485372477243
O	16.873509531469622	-13.545844684363122	21.708603958552658
O	16.65517603709778	-12.528473846586747	22.44598789617592
O	14.603984854921809	-13.646564201982253	21.0683397416216
O	13.932880724697599	-12.712486820212844	21.967705770747596
O	12.610059118229277	-12.0407327774567	21.883732118668384
O	12.175720170014799	-11.424956120156207	23.085311153954926
O	11.037576367864347	-11.208798017005812	23.6020063766548
O	10.378845954888135	-12.09214262163189	24.524733426617118
O	10.715317700836362	-9.8313529551281	23.88474756364488
O	16.778872679881736	-15.516721995873224	24.925773043509967
O	15.23557582308747	-15.51433997414312	22.26075324186361
O	15.9961875718379	-17.932416059151166	22.71199420736811
O	17.694814424959326	-14.33659057482974	24.908420462164607
O	17.56317432053472	-13.198394769487987	20.476381296499518
O	15.787405853083708	-17.15135832898539	20.328924282801356
O	18.94887530897604	-14.016062414383805	24.19845854936125
O	19.25355122058053	-15.215664072527936	23.337926048039925
O	20.340951979997097	-15.35286029775858	22.517921449663213
O	20.10984755014136	-16.170502779757022	21.439119728435823
O	18.887861980682754	-16.41433273188956	20.878575423785808
O	17.826048856515925	-16.409044738086198	21.695312011237178
O	18.00437511739313	-15.704842487060832	22.889051993794013
O	18.485114548027752	-15.382024395842315	25.89063133037172
O	17.05433656484344	-12.332422002383865	19.48823831957221
O	15.83500793920322	-11.491176563181405	17.776257273498878
O	18.28575685902902	-11.936067323207919	18.625692828709816
O	15.312685999373493	-13.609741405820618	17.9946547051053
O	18.863539320977562	-13.299551471141644	18.395308887891733
O	19.8299453023124	-13.433775553217988	19.582774836147273
O	18.996335824256196	-12.954709156848303	20.77788220657737
O	16.009427554075113	-12.540045303022758	18.512568096438947
O	17.825577554459734	-14.430334136635597	18.432737652016584
O	16.128754443483402	-16.910936815241108	21.63547610378812
