79

O	3.3950643399625	-8.189937794708333	1.0887675307708335
O	3.9332289299625	-6.9345392547083335	1.1623967707708336
O	3.4004586099625	-6.190812944708334	2.2123173707708337
O	2.0405183099625	-6.216531834708334	2.3556295107708336
O	1.3921035199625	-7.298151744708333	1.8358373507708334
O	2.0349640999625	-8.239945634708333	1.0944197607708337
O	5.2107156299625	-6.684046274708333	0.5267312877708334
O	5.5174398399625	-5.583237894708333	-0.4450666892291665
O	4.5748543299625	-4.606871264708333	-0.056896739229166465
O	3.1998361299625	-4.922971054708333	-0.33178083182916646
O	2.3913143499625003	-3.8323662047083333	-0.43907983822916646
O	1.2632679599625	-3.7461732647083337	-1.2147599082291665
O	0.7717761669625001	-5.0034330147083335	-1.5240988592291664
O	1.5256506899625002	-6.153694854708334	-1.3097029892291665
O	2.8686124899625	-5.986954054708333	-1.1313254872291665
O	2.7573811999625	-2.7348224147083338	-0.019896520229166492
O	-0.09531054393749994	-5.081739944708334	-2.7112063992291664
O	0.6045889009625001	-2.4866562947083333	-1.3275969292291665
O	1.1626426499625002	-1.3781280747083335	-2.1089791792291663
O	1.7799812899625	-0.10465226470833344	-1.8324826292291665
O	0.6694010359625	-0.9765017737083335	-3.2273612092291666
O	2.8963478499625	0.16964871529166659	-2.8003277492291665
O	3.0704114399625	-1.1699898905083335	-3.3125105592291666
O	4.063938719962501	-2.0892305947083334	-2.8253443292291665
O	4.204503069962501	-3.4685558547083337	-3.0858818892291664
O	3.0708810999625	-4.323548114708334	-3.417045739229166
O	2.4745178299625	-2.1080769437083333	-4.225163929229167
O	2.3031084099625003	-3.5436570547083335	-4.112515499229167
O	6.1053854199625	-6.408300394708334	1.5831741007708335
O	5.6942657799625005	-7.767791554708333	-0.09381078222916647
O	4.5309805099625	-1.9853586637083334	-1.5798325392291663
O	-5.3797793600374995	4.315763605291666	-6.6740068392291665
O	-5.9491790700375	7.314365725291667	-4.488777669229166
O	-7.1451034100375	1.0651203352916663	1.0051042607708336
O	-8.5751481200375	-2.4620642747083332	0.9146830507708337
O	-5.7554414500375	-3.5295752847083337	-1.3007663192291665
O	-6.8473461000375	-1.0522367837083335	-3.9709626892291663
O	-9.9382228700375	-3.2273203547083336	-4.436032029229167
O	-9.0112866600375	-6.734028184708334	-3.2679853192291666
O	-5.7061555700375	-8.599228104708333	-3.5087892592291663
O	-2.2375632100375	-13.000933504708334	-4.954876079229167
O	-2.3484056600375	-10.723492624708333	-7.925899259229166
O	-5.8932118800375	-11.688677404708333	-9.004872959229166
O	-7.2439455500375	-8.288020354708333	-7.995431849229166
O	-4.1461833500375	-9.749994994708333	2.611184730770834
O	0.39618638796250005	-11.824765304708333	5.399716460770834
O	0.9886796799625001	-8.185313324708334	5.999472690770833
O	-1.9227982500374998	-6.082546824708334	4.7365038007708335
O	-3.1917553900374998	-5.619103504708333	8.371938610770833
O	-6.3979511500375	-3.5287592347083336	8.490556770770834
O	-5.8955469900374995	-2.161069074708333	4.979528580770833
O	-1.3588417700375	11.514649395291666	-4.984522439229166
O	-0.9420731240375	11.078045795291667	-8.727024309229167
O	1.3841748399625002	8.107479785291668	-8.345845859229167
O	10.5481838199625	4.129973445291666	-8.085390159229167
O	7.1441552999625	-7.805281344708334	7.495527180770834
O	-0.21045375103749994	0.6000531952916666	10.962663480770834
O	2.2341459199625002	3.4354311652916665	11.393125780770834
O	5.236968539962501	4.425198485291666	9.300449040770834
O	6.4370678999625	7.799441315291666	8.034461810770834
O	4.4116498799625	7.502174295291667	-1.6996638892291664
O	4.7934296699625	5.110006235291667	-4.647486089229166
O	2.7596327499625	3.1476692252916663	-7.120583839229166
O	-0.5036807540374999	4.923234245291667	-7.860728019229167
O	-0.5440279870375	6.678890685291666	-4.4830517292291665
O	-1.9145176900374998	3.595491485291667	-2.7407804192291665
O	-5.2219840300375	4.411778965291667	-0.8602567332291664
O	-1.1555607900374998	4.896077935291666	1.9079279007708334
O	-0.9699345180375	1.2243627552916663	2.526024200770834
O	2.4175535599625	-0.18887109370833355	1.6522445107708337
O	6.2555318499625	0.01230360529166652	1.4704336807708336
O	9.3369232899625	-1.5749846107083334	-0.12176821222916648
O	10.2170525199625	0.33476863529166656	-3.2558335492291666
O	9.822252719962501	4.142032155291666	-2.9512404792291664
O	12.8125046199625	2.1346154752916666	4.359591210770834
O	9.5960750399625	3.9297235852916663	5.439979060770834
O	6.1055977199625	4.164816285291666	3.949677060770834
O	3.4720233499625	2.2781103752916665	5.869023520770834
O	0.03630909776250006	3.754687995291666	6.542758600770833
