81

O	0.007062478897959634	2.7978996109387753	0.5883075458163264
O	-2.6720041211020407	-5.237961289061225	-0.9658025741836735
O	-0.7419621001020404	1.2332415209387755	0.43740031881632635
O	-1.5486617051020404	0.6772089309387754	1.4229425738163266
O	-2.48621715110204	-0.21518543806122448	0.9932677638163264
O	-2.33152928110204	-0.8180082120612245	-0.2487304271836736
O	-1.0152001841020404	-0.9539474010612246	-0.5893712711836736
O	-0.31174077610204043	0.24303094093877542	-0.4493978481836736
O	-0.6154688361020404	-1.9671797230612245	-1.6250360661836736
O	0.2623548988979596	-2.9774712890612243	-1.1477315261836736
O	-1.8449421401020403	-5.033478459061224	0.5454317078163264
O	0.39629613889795956	-4.292449409061224	-1.6258265861836736
O	1.7278212788979597	-6.257452819061225	-1.9802764161836734
O	1.3467243388979597	-7.606918569061225	-1.5356520861836735
O	0.24425556889795952	-7.402379419061225	-0.8577760751836736
O	0.26846085889795956	-6.124284009061225	-0.1726297333836736
O	1.1766420488979594	-5.329214439061225	-0.9382758721836736
O	0.1761927188979595	-5.876447659061225	1.2522881338163265
O	-0.6440763921020404	-7.032699549061225	1.8085528738163266
O	-1.9625380531020404	-6.396004669061225	1.7406772138163265
O	-3.1538600311020404	-1.9541343020612245	-0.6881363421836736
O	-3.9068102711020405	-2.3716187090612246	0.4578899318163264
O	0.05324711889795952	-4.631461409061225	1.5238887838163264
O	-0.44082228210204033	-4.690434809061225	-2.4375207061836734
O	-0.14451722110204046	-7.151689099061224	3.2216518038163264
O	1.3847511688979595	-7.067131749061224	3.1137275638163264
O	-3.4008049611020406	-7.2201949490612245	0.15755583581632643
O	-4.26690553110204	-8.100314839061225	0.7944830568163264
O	-5.379499391102041	-7.429242169061225	1.3121521038163264
O	-5.90712954110204	-6.568621749061225	0.3498085268163264
O	-5.10274010110204	-5.855601679061225	-0.5351360401836736
O	-3.7789692711020404	-6.007269979061225	-0.4713407551836736
O	-6.88780899110204	5.043190900938775	-4.434651606183674
O	2.1259059688979596	-0.46161381606122454	-10.287808326183674
O	8.67868603889796	-0.10051232906122443	-4.769612216183674
O	10.921012408897958	-3.1801276490612245	-4.7804252561836735
O	7.806895648897959	-5.341286529061224	-4.368951276183674
O	6.5090375088979595	-4.050172669061224	-7.728128966183674
O	9.38613820889796	-5.9150796890612245	-9.377044506183674
O	4.13638641889796	-14.953742759061225	-5.376348996183674
O	7.055481138897959	-12.203874359061224	-9.046563456183675
O	7.921445308897959	-7.077718649061225	6.533764283816326
O	8.923722108897959	-5.472564379061224	3.2206514038163263
O	11.642214008897959	-3.5003231590612245	4.933999423816326
O	10.77817310889796	-1.6078311180612246	-0.19206411118367359
O	-2.44019767110204	6.309820100938775	-8.594420376183674
O	-4.645334211102041	4.2354672409387755	-10.893744126183673
O	-5.27934551110204	1.5415856509387755	-8.330260336183674
O	-8.57592501110204	0.16757511093877553	-7.167484116183674
O	-10.96035652110204	-2.7770164290612245	-1.2840400361836735
O	-13.748402491102041	-4.844414729061224	-2.7880809661836734
O	-3.3033128411020405	12.142996540938775	3.8914590838163265
O	3.7962799088979597	-6.568539179061225	11.373352773816325
O	8.73328720889796	2.8978198409387756	6.901411253816326
O	6.24331026889796	5.528407970938775	7.929513333816326
O	2.46226300889796	5.435988620938775	7.958898373816327
O	-0.18940989410204034	7.926927830938775	6.830947543816326
O	-3.9788405611020403	8.122038690938775	6.876048523816326
O	-5.91670651110204	5.253651270938775	1.2415699738163266
O	-3.863327341102041	3.542263770938775	-1.4204704361836735
O	-5.0014860911020405	0.15811917093877548	-2.6598037561836736
O	-4.059272081102041	-2.5498018490612244	-5.152059256183674
O	-2.51848006110204	-0.9230479520612245	-8.262622236183674
O	-1.2386048853020404	2.1283561409387755	-6.340701096183674
O	1.8292316388979597	0.3442695509387754	-5.109321536183674
O	5.12717205889796	1.9984924509387756	-5.917743836183674
O	3.32449858889796	3.2782165009387754	-1.5132466261836734
O	4.54664663889796	0.04544125093877538	0.1009890518163264
O	1.8723674488979596	-1.9289265650612246	1.9479925438163264
O	-1.2126441319020405	-2.0489241990612244	4.009580763816326
O	-4.019112631102041	-4.176437949061224	5.628216913816326
O	-7.05515024110204	-3.895481999061224	3.4041901538163266
O	-7.58913202110204	-0.49874009006122455	1.9450911438163265
O	-9.13062277110204	2.4322104809387755	3.8158439638163264
O	-10.03385146110204	0.3299053509387755	6.840511993816326
O	-10.82473786110204	2.1182649809387755	10.096454473816326
O	-5.40958268110204	0.8116796609387755	9.728624243816325
O	-2.8682722511020406	3.0449039809387752	7.963006443816326
O	-1.0140032491020403	2.9294571409387755	4.714489243816326
O	2.6730845388979594	2.2425576209387756	4.984192843816326
O	5.27068078889796	4.066570220938775	2.9247977038163264
