33

O	15.496073687619745	-12.78676886451498	20.851959370604348
O	18.817250768668362	-17.771753897214765	22.90853027317247
O	17.00183444587841	-16.618992766376085	22.340996388175483
O	17.94260574929767	-18.887744737715366	24.987029472764288
O	20.296916430879726	-15.613885343978833	23.811697749890918
O	18.170219006927688	-15.705028049278837	25.027887539231102
O	18.405930077857096	-18.938919884754732	23.535399863641906
O	14.2958365371184	-10.581551994225434	21.062526721828085
O	16.733054340833696	-13.292645492700107	21.213305633977235
O	18.22124660217476	-16.54921224938	22.39953186188164
O	11.250465564981349	-11.09495674174396	23.749350619759472
O	19.17754654041066	-15.638755529441166	21.887844613701237
O	20.45565663482953	-15.316392417130022	22.36884101859821
O	15.18408953236717	-11.451753024229475	20.339870073168868
O	14.475470805296224	-11.607734756951075	18.99127714278699
O	13.091358389028315	-10.843298126831346	21.712617166370094
O	12.88768781778036	-12.0864158364501	22.24576593257917
O	11.778760723271862	-12.14702436781512	23.073512938714043
O	11.891104067501644	-9.94585343567704	23.635388957966434
O	12.539870182442048	-9.812318277299399	22.39981143509168
O	17.572914847792994	-12.848044363856191	22.24501656343464
O	18.649090149534	-12.03019242471094	21.967330900674632
O	17.686516278794016	-13.51657089857462	23.46705575185378
O	18.918884470569292	-13.774947415290763	23.99795303070975
O	20.046687342224285	-13.132301225455905	23.44287414932464
O	19.90927454890945	-12.110780112935362	22.480097693463623
O	21.21421132491586	-12.14956243103106	21.71511378449753
O	19.11575743301961	-15.185809367456782	24.470035171085698
O	21.436758630327386	-15.110050657820656	24.572687691800468
O	21.16632262739626	-14.278118847334772	25.795347651679833
O	21.911436371917855	-16.446068018537858	25.205972777757747
O	19.72363760473755	-19.73880617280999	23.831550534099854
O	17.67254006645135	-19.94054083802713	22.689742690623095
