78

O	-1.1990582374000005	2.1348578582800006	-2.5853828000999997
O	-1.9897137384000005	-3.4499299717199996	-2.0418496500999996
O	-3.491611528400001	-4.12063495172	1.3390070799000005
O	-0.6191334484000006	-4.92202485172	-1.0030740670999996
O	-1.7901349354000007	-4.30298439172	-0.9261636440999996
O	-5.735422858400001	-5.343684241719999	0.4625920039000005
O	-2.6284374744000005	-5.42664692172	-0.8411472620999996
O	-2.850628778400001	-6.013755991719999	0.3483825939000004
O	-6.8887895284	-5.21443988172	2.5729809899000005
O	-3.6839039684000006	-5.603329201719999	1.4563527199000006
O	-6.5089130684	-3.4141517517199995	1.1520279599000005
O	-3.3061805884000006	-5.62652638172	2.9096705099000006
O	-4.241695858400001	-2.3610926117199997	-0.05773175909999956
O	-1.7901939884000007	-5.3645435917199995	2.5916199399000006
O	-2.074826741400001	-4.3043243017199995	1.6459474799000005
O	-4.1752755384	-3.5543649317199995	0.2623833659000004
O	-4.920715668400001	-4.65044104172	-0.46593890009999955
O	-6.1247728384	-4.54272588172	1.6044432899000005
O	-8.0148567084	-4.60477051172	3.2022045099000005
O	-7.6903222584	-3.9772184017199996	4.5272999899
O	-8.949120928400001	-5.781291821719999	3.5210630499000004
O	-8.798288108400001	-3.6986832317199996	2.3082020399000003
O	-2.083329530400001	-2.0618650517199995	-2.6569135900999994
O	-1.6423115044000005	-0.7124492597199996	-2.3823665500999995
O	-1.9089894180000007	0.5857835382800004	-2.8299627400999996
O	-2.7748769314000006	0.6140998482800003	-3.8219006700999993
O	-2.8054613964000006	-0.6032220412199997	-4.5207499801
O	-2.8795537584000006	-1.8273185217199996	-3.7651854200999995
O	8.7566832416	-2.1427557717199996	-3.7712396400999997
O	9.6007833416	1.5214801882800004	-4.037939650099999
O	6.293175381599999	1.1649505682800005	3.6958815599000006
O	6.245523931599999	-1.3252686857199998	6.5757181199
O	4.1455908116	-3.6961579117199994	4.4327004499000005
O	7.0461066815999995	-3.9076787317199995	1.9564900499000006
O	9.0004654416	-5.73393607172	4.6013276199
O	6.4650626316	-7.2962504917199995	6.9526445799
O	3.0879370616	-8.80417498172	6.276334479900001
O	-0.8854107384000005	-12.952335891719999	6.5114681699000005
O	1.1139712315999992	-13.584929491719999	3.3874393099000004
O	4.181252231599999	-14.90548589172	5.1677956799
O	6.135443521599999	-11.80242749172	4.2454040699
O	-0.9515668044000006	-5.162212011719999	9.6887111999
O	-6.519319348400001	-4.53236522172	10.422142969900001
O	-5.895486148400001	-1.4965976097199998	8.301414859900001
O	-2.1608198454000007	-0.9719214457199996	7.718082409900001
O	-2.1946057214000008	1.9769580082800005	10.1593473699
O	1.2829140815999993	3.4891386982800006	10.5007390699
O	2.5857790315999996	1.8266216982800003	7.345382459900001
O	7.417961501599999	4.080175088280001	-9.3500374401
O	8.2356301416	1.0503331682800003	-11.476431930099999
O	5.034442311599999	-0.7668679847199996	-10.652560230099999
O	-4.431606188400001	-3.5459210617199997	-12.7513809301
O	-11.5938112284	-0.18552069171999963	5.8616800599
O	-3.457073478400001	7.99232942828	6.081813059900001
O	-4.623842248400001	10.222548208280001	3.2726137299000007
O	-6.071826998400001	9.32923602828	-0.09088707009999955
O	-5.3971358584	10.64728090828	-3.5672036600999997
O	-6.7694570884	10.19079820828	-7.0407959401
O	-0.2856052584000006	3.5718841182800007	-7.8863011101
O	-0.3706423884000005	-0.16165122971999962	-8.4488308901
O	1.6033991215999992	-3.4132251117199996	-7.6632913701
O	5.2871591015999995	-2.6005959217199996	-7.400445470099999
O	4.7258315116	1.0595024982800005	-6.4824426101
O	4.2070959016	0.2573022392800004	-2.8183443800999997
O	6.570607111599999	2.1292471982800003	-0.46059499709999957
O	2.2204620315999994	4.462721588280001	-1.3082967300999995
O	0.4986249015999993	2.3000187082800005	1.3367682199000004
O	-2.9410666184000007	0.6765159582800003	0.3454339479000004
O	-5.9345072084	0.47795080828000047	-2.2175693400999994
O	-8.683242828400001	-1.6986636117199998	-3.8787651000999994
O	-7.5311055184	-2.56543095172	-7.4528971000999995
O	-5.7036136084	0.17508669028000035	-9.3760339901
O	-11.6720676284	4.102860388280001	-5.364309480099999
O	-8.6094285484	6.087648948280001	-4.2084233500999995
O	-4.986300018400001	5.18568368828	-3.4619427700999994
O	-4.0669283084000005	5.36479358828	0.10787578390000041
O	-0.9052634224000006	6.93731225828	1.4456689999000005
O	0.8998307915999992	6.971995388280001	4.776086949900001
