27

O	15.234932695042131	-12.798358919336264	17.81563865898629
O	11.146520325228204	-12.494588049710792	22.167729487971542
O	12.602662222987023	-13.511281079200181	20.226654439795013
O	13.449275635859587	-13.056518408489564	19.140429710088128
O	13.472884943095012	-11.82580501184048	18.386648537859315
O	14.703376196339772	-13.447852343971352	18.870409149503647
O	12.698404407031978	-10.908034664405369	19.122335396589893
O	14.693843079668314	-11.531177256145574	17.76070359331434
O	11.80801954053014	-11.287193653647464	20.229458623895308
O	11.602720123198447	-13.414760496521744	23.11407465180015
O	11.974875675334124	-12.443685780946524	21.044639047632366
O	9.838357969563855	-12.179240944621935	22.48554608981851
O	13.324799872889855	-10.650516401403543	22.656452092649694
O	11.037530727672483	-9.632370881869782	23.202690399703524
O	13.556979239415773	-9.51846967424454	21.778145408577256
O	11.598572094727267	-10.938535519787312	24.655258727428013
O	14.468356422810311	-9.625775005646958	20.648016062688168
O	16.087608100468586	-10.827818491650168	19.08670150301692
O	15.426552839956475	-10.56511015363465	20.278206997364983
O	15.750519891555575	-12.648382478515913	20.329839352998057
O	15.057951080747724	-11.704452213850233	21.024632683589598
O	14.230735486200553	-11.718960435149713	22.194650273814172
O	12.223608837022965	-10.380151732156317	23.501369572033084
O	16.48686299964211	-12.131564426935022	19.312677616182253
O	16.63140654359198	-13.047160360435758	18.17348516149626
O	16.85902065161679	-14.351316299191474	18.43135208261187
O	17.15704421614896	-12.528851065749077	17.02457214294638
