85

O	4.468948374363636	3.068393654345454	-4.579605853127273
O	3.272290354363636	2.403838803345454	-5.0933362931272725
O	2.0019888943636364	-0.819925515654546	-3.3019598331272726
O	3.064034584363636	-1.303873275654546	0.36804480687272734
O	2.7444724943636363	1.4829816130454543	-4.042666303127272
O	2.626251664363637	1.9858499503454543	-2.8846527231272727
O	2.2997368043636364	3.4846726143454543	-5.465787163127272
O	1.8611049543636364	-2.146556955654546	-4.040900303127272
O	2.6482665543636363	-0.3386921256545459	1.4431313368727274
O	1.3470709543636366	3.119537164345454	-6.523768093127273
O	2.1354957343636363	-1.795618695654546	-5.492683303127272
O	3.2734522343636367	1.0157969293454543	1.2594250368727276
O	3.0904885243636366	-0.6294763156545458	-5.388961523127272
O	0.07898576236363647	3.632475494345454	-6.549956863127273
O	1.6056988043636364	2.017231354345454	-7.2880234631272724
O	2.665760454363636	2.020079662345454	2.2031700268727272
O	-0.8323420856363635	3.291696304345454	-7.5235243331272725
O	0.6253057853636365	1.536980389245454	-8.148435723127273
O	3.2465418543636364	3.323787414345454	2.022777296872728
O	-0.5510389036363635	2.215747560345454	-8.326128283127272
O	2.8034614843636367	4.346076204345454	2.6507586768727274
O	3.6220529043636365	5.519406244345454	2.7452091468727273
O	1.9790936243636366	4.235953634345454	3.789540576872727
O	2.8920258143636364	-1.0905898556545457	-2.1451557131272727
O	2.6156713143636363	0.08944001434545412	-4.235045713127272
O	4.132196624363637	-1.2073790856545459	-2.2182489371272727
O	3.029822684363636	-2.7116338256545456	0.8189452968727273
O	2.3019578443636366	-1.1392398756545459	-0.8642142161272724
O	3.951914174363637	-3.071357605654546	1.7765590268727276
O	2.7074818143636366	-3.780149415654545	-0.17129563312727258
O	2.116370634363636	-8.606630145654545	4.352951346872727
O	-0.24283834963636353	-7.764483905654545	7.154722436872727
O	-5.025261775636364	-6.096135765654545	0.41844334687272755
O	-5.510561605636363	-7.551296725654545	-3.054856813127272
O	-1.9969703356363635	-6.366504215654546	-3.9341773331272725
O	-0.5846374066363635	-8.662680345654545	-1.2363220081272726
O	-1.7461822656363635	-11.619763245654546	-3.3217178231272726
O	-1.9774328056363635	-10.376543245654545	-6.910659933127273
O	0.15102336636363645	-7.859647115654546	-8.768522823127272
O	3.472015964363637	-6.050500605654546	-13.105277263127272
O	5.770395434363636	-7.670092315654546	-10.593488483127272
O	4.760479354363636	-11.242487445654545	-11.421955483127272
O	2.984136864363636	-11.622756045654546	-8.097683323127272
O	-4.029942675636364	-3.245381325654545	-10.456653523127272
O	-3.9510561656363636	1.9249424703454543	-12.818794963127273
O	-4.4050187356363635	2.946362174345454	-9.232856133127273
O	-5.074349145636364	-0.08391980565454582	-7.012149693127273
O	-8.772821545636363	0.7971402053454542	-6.821830353127273
O	-10.682409135636364	-1.7565046156545459	-4.700224083127273
O	-7.501241535636364	-3.1080773356545457	-3.0998504731272725
O	2.414583854363636	-3.9210176656545457	11.356592736872727
O	5.819855764363636	-5.597609255654546	11.170519336872728
O	6.946563374363636	-3.612649395654546	8.158434826872728
O	10.098175584363636	-1.5848914256545459	7.726156426872728
O	11.959142164363636	3.9088186743454543	3.763928646872727
O	15.578142664363636	3.0822268543454543	3.169450256872727
O	-2.350220845636364	8.961928924345454	-9.061587773127272
O	-12.788657835636364	3.5302488043454545	-2.4108450321272725
O	-9.606837655636363	5.037965834345454	-0.9019673521272725
O	-8.849793735636364	7.488406634345455	1.8553687668727277
O	-5.534317245636363	8.939831794345453	2.9952500468727274
O	-4.097973815636363	9.502507874345454	6.467686036872727
O	-0.9623488156363635	11.056687584345454	7.930771166872728
O	3.4081824643636365	6.090630944345454	8.151279036872728
O	3.0249167443636367	2.5182059143454545	7.039284856872727
O	5.888283534363636	1.117890914345454	4.936575806872727
O	6.956627114363636	-2.061806005654546	3.081060356872727
O	5.695312574363636	-5.092882275654546	4.971986136872728
O	2.7185479343636363	-3.2278463556545454	6.506642426872728
O	0.6216603463636365	-3.6604226256545456	3.3900270668727277
O	-2.6994519356363638	-5.353699255654545	3.907242096872727
O	-2.951542175636363	-0.4175002956545457	4.174099336872727
O	-2.9036594356363636	-0.10282595565454589	0.3619460968727275
O	-0.2554492816363635	2.1723723303454543	-1.0809637321272725
O	1.9634339643636365	5.209803624345454	-0.8781132351272725
O	4.958864684363636	6.986432704345455	-2.3830992971272726
O	7.980048374363636	6.186494214345454	-0.26673099312727255
O	7.2858996843636366	6.092368964345455	3.4831574568727275
O	7.765268494363636	11.561119854345455	3.2248139068727273
O	2.8584687843636365	12.515415854345454	1.0222625468727273
O	0.11412567236363647	10.469056774345454	2.7498969668727273
O	-0.5579015466363635	6.768145304345454	3.1501162368727273
O	-3.509523015636364	5.494612054345454	1.1944811168727274
O	-6.012048935636364	3.039800934345454	2.5924027168727273
O	-8.730075635636364	0.9171365023454542	1.1127783768727275
