86

O	-3.7592705067254903	2.719562862039216	1.313165297882354
O	3.6665628432745097	1.199370658039216	-5.976388112117647
O	3.3402942432745095	-0.024173867960783912	-6.397063372117646
O	2.0762849332745095	-0.485414747960784	-6.424692382117646
O	1.2013139732745097	0.377253292039216	-6.141121432117647
O	1.4356387232745096	1.766247251039216	-6.2289387821176465
O	2.75814186327451	2.231969230039216	-6.084812392117646
O	1.2660624432745098	-1.659937197960784	-6.942328732117646
O	0.1402597002745098	-1.773932427960784	-6.121209412117646
O	-0.10946303412549022	-0.332887917960784	-5.872327042117647
O	1.6982132532745098	-2.9254620179607835	-7.276955402117646
O	0.9437621932745098	-4.063229527960784	-7.264780482117646
O	-0.2645654717254902	-4.025346817960784	-6.616067792117646
O	-0.7951298857254903	-2.774976237960784	-6.312485542117646
O	-0.7500187527254902	0.09420170203921607	-6.931751642117646
O	0.08981078127450978	-0.10104983796078382	-4.457182112117646
O	1.2740664132745096	-0.7874751479607838	-3.9238015021176462
O	1.9404391132745098	-0.42649583796078394	-2.7362511151176463
O	3.33144620327451	-0.9065437979607838	-2.9897657651176464
O	3.2311333932745097	-2.156050897960784	-3.809923922117646
O	1.8221439432745097	-2.0653152079607837	-4.273334152117647
O	1.7894117432745098	1.0043487670392162	-2.427903029117646
O	1.0165415932745097	1.5336328623392161	-1.336084992117646
O	0.7809907882745097	2.921687782039216	-1.1018698221176462
O	-0.6472719557254902	3.433388162039216	-1.1096764321176462
O	-1.40303156672549	2.945666222039216	-0.04797373211764633
O	-2.7328423867254905	3.250420062039216	-0.017441992117646077
O	-3.3050697667254902	3.428714242039216	-1.242137552117646
O	-2.49785116672549	4.0053833920392155	-2.219514413117646
O	-1.21477030672549	3.500054712039216	-2.437438336317646
O	-0.32724045072549024	4.023750932039216	-3.457560631117646
O	-0.37085705072549024	5.428338302039216	-3.371152578117646
O	4.64236436327451	1.528679794239216	-5.021836712117646
O	0.31269097427450976	1.169057435039216	-4.314433352117646
O	2.41784675327451	1.948808274039216	-2.986793945117646
O	7.74288985327451	2.921311232039216	4.993714517882354
O	5.74666380327451	3.138936042039216	8.199510067882354
O	3.46268408327451	-4.439214357960784	5.307877817882354
O	5.12599682327451	-7.296702627960784	3.473570877882354
O	5.4275067732745095	-5.049810937960784	0.41950265788235397
O	7.64667118327451	-2.6746783779607837	2.381298977882354
O	10.26244719327451	-5.439902667960784	2.560560017882354
O	9.549846913274509	-7.6918247479607835	-0.4307482021176461
O	8.30955546327451	-6.845427207960784	-3.8969889021176463
O	8.55814121327451	-6.857572457960783	-9.605661132117646
O	10.66025909327451	-3.982145307960784	-8.451335822117645
O	13.60279119327451	-5.983034847960784	-7.186721732117646
O	12.721986993274509	-5.055433717960784	-3.6229711421176463
O	2.8278528632745097	-10.189001957960784	-4.384504372117647
O	-1.5463737767254901	-10.684673757960784	-7.965319232117646
O	-3.1599243467254903	-8.469114627960783	-5.393749262117646
O	-0.9841778467254902	-8.165378177960784	-2.298915206117646
O	-3.1427887467254902	-10.614606957960785	-0.3874430721176463
O	-1.8090484067254904	-11.137619457960785	3.161144797882354
O	0.3346984012745098	-8.008853217960784	3.0751009678823538
O	2.56732039327451	8.521274242039215	8.577394267882354
O	5.34646789327451	10.622873602039217	7.075499047882353
O	4.35750019327451	9.890323832039217	3.490196837882354
O	3.6934879632745097	12.352535742039215	0.705256627882354
O	-0.2791497667254902	12.322617142039215	-5.110279862117646
O	-8.03905907672549	-5.785871557960784	-8.450419652117645
O	-8.210347686725491	-6.621618907960784	2.9694815478823537
O	-10.62663150672549	-3.871610527960784	3.8830335778823537
O	-10.96117060672549	-0.3858972779607839	2.4271578778823537
O	-11.44663470672549	3.022887872039216	4.046058597882354
O	-11.95966710672549	6.593270712039216	2.8819645978823543
O	-2.5476737667254903	7.318919412039216	2.725857397882354
O	0.05676461827450979	7.932211952039216	0.056561907882354046
O	3.6953135132745096	6.984894702039216	-0.8441482521176462
O	5.71162244327451	6.627489432039216	2.280230427882354
O	2.71587569327451	5.755407902039216	4.510302977882354
O	2.8368456832745097	2.1164187650392163	3.383788637882354
O	3.1074463232745098	-0.32033911796078396	6.362542217882353
O	-1.5804468567254903	0.5805463260392161	5.027258077882354
O	-1.34393331672549	-1.8209022479607837	2.1232717078823535
O	-2.3306478767254903	-0.515919417960784	-1.3089142521176462
O	-4.51789304672549	1.852959081039216	-3.499150016117646
O	-4.7507106767254905	3.675908572039216	-6.871608302117646
O	-3.2020042267254905	7.108891422039216	-6.741597712117646
O	-3.8779856067254905	8.964952162039216	-3.4652661961176463
O	-8.70135943672549	10.177346302039217	-5.723083782117646
O	-11.03859770672549	5.2897358320392165	-4.974977212117646
O	-10.318369706725491	3.941517442039216	-1.4604350521176461
O	-7.25126692672549	2.9955541220392163	0.4727226778823539
O	-6.79685359672549	-0.7009599479607838	1.080770387882354
O	-5.64592023672549	-2.100669427960784	4.422608267882354
