33

O	16.662723955726587	-12.955020175485053	22.779576310719943
O	19.110413097361835	-14.950593124345684	23.910149519291394
O	19.253812223980784	-13.785165662668387	24.841168308139455
O	20.458557721150566	-14.073387136517319	25.733905541712105
O	15.874779505939337	-15.691232963959468	19.602496775211172
O	21.74479641594732	-14.128076431721226	24.95819053800936
O	21.598948777179825	-15.31090561778978	24.006760465843975
O	20.425547841688868	-15.013507162541474	23.12124644620378
O	16.902565809208525	-15.650927649685523	23.069926692298345
O	18.05152520077528	-14.830340528594462	22.860925137765975
O	17.758944795784178	-13.467722969172499	22.391402599444806
O	13.425593093652825	-15.837111308937347	19.37159170081925
O	18.30739468405344	-13.011261958412696	21.145477018133445
O	18.188331514395614	-11.739580113112844	20.42864274464641
O	16.821749229660437	-11.65044094395299	19.85343845147885
O	16.370415423571963	-12.677395901961123	19.314677722167186
O	15.937975242927806	-10.565453263236277	20.042032913781952
O	14.549943663380068	-10.723432818604936	19.603248854388948
O	13.747801983506417	-10.88298401848291	20.83043796283956
O	13.226262237419851	-9.74750368797541	21.36512126944811
O	12.393888186650003	-9.64444223818011	22.4320116886768
O	11.924516995312645	-10.77492559066836	23.007698715351708
O	12.379131049720907	-11.904602157809457	22.432497822830854
O	13.128226099023047	-12.007411593375284	21.279233318913477
O	11.028265995639103	-10.595611482953625	24.106757273829952
O	14.722270575319964	-15.407361905324256	18.744102386240236
O	10.394541914296807	-11.55431799542647	24.599057616133354
O	10.514043626907597	-9.392903575732099	24.60795585762544
O	19.19912553993368	-12.247174364053922	19.414461876020205
O	19.08669394451406	-13.599957915854304	20.0692455114692
O	16.62375142691548	-16.339043050892208	21.840138482610534
O	15.816941464835992	-15.36720214255348	21.00347338468533
O	14.728257724327133	-15.0385157756387	21.56647970339413
