34

O	14.804361317954807	-17.779500273366367	22.30590850058646
O	16.173394238497217	-17.21608198848869	22.194430901985903
O	16.247581446093545	-15.9963837843463	22.967744206309696
O	17.494471552049625	-15.354093834720068	22.668371269738522
O	16.982261311736146	-14.14322471977858	21.903867544393602
O	17.964917110398723	-14.70800251262814	23.972542057567356
O	19.349566892747887	-14.150529120468907	23.827246464435405
O	20.21691376517792	-15.27195599877717	23.338313798968738
O	21.65025104081507	-14.839352177973016	23.627787457357392
O	21.941824418328196	-15.159410190681761	25.067833135243827
O	20.615932486224	-15.076607362202026	25.81473792591359
O	19.86436442306396	-13.910279570330525	25.249678597505913
O	16.330604962644152	-13.199819260733012	22.393480262353453
O	18.138007983936646	-13.618077452194163	21.31412010471345
O	17.943587191777713	-12.899170556318811	20.093146037131795
O	16.58908142105238	-12.439064383945986	19.990611449542534
O	15.802101904451611	-13.45537912142019	19.879974119481123
O	16.016468596683058	-11.176604435926535	19.79388219427836
O	14.587778218708236	-11.207524704489481	19.463137828585985
O	13.874940050416672	-11.420744995396458	20.733576067914356
O	13.151426500814964	-10.298189738728464	21.014073053115332
O	12.274683562089846	-10.121761190657086	22.030380190487698
O	12.038989538724246	-11.170738055341973	22.86528162703536
O	12.694605513727446	-12.26622233362793	22.523195419172243
O	13.34792853770152	-12.516519332136873	21.3594035465223
O	14.484928604540034	-18.439672346128688	23.324877941897288
O	13.829745256763818	-17.409735151754127	21.392574887099343
O	11.337423466514633	-10.788869569402545	24.063443452159127
O	10.468288010655863	-11.57270696445349	24.54901579252929
O	10.806497639500876	-9.472805596799063	24.325027973514008
O	18.231615140783244	-14.029005899113582	19.019700621406315
O	19.21084246546569	-12.224910682119557	19.77785700958077
O	19.57241716570374	-14.528503774660386	19.59706585587595
O	20.248977289981017	-13.280388304925838	20.155043742398398
