32

O	14.121870992564306	-11.446842461997882	21.299224611580247
O	13.751784956526539	-10.165754088183549	21.438055402062307
O	11.938725014035235	-10.841390740889238	22.940199074918652
O	12.389358692941133	-12.052865515500521	22.545429900319366
O	12.55140661542342	-9.955270022598235	22.159339640566774
O	13.798089486969156	-12.272749925477672	22.333946104583358
O	18.03214338718635	-13.026309577003971	23.010852790388245
O	17.605385721035354	-13.877612735835603	21.98354269221216
O	17.176903900860935	-11.763506572586692	21.03301881410205
O	18.61554216403289	-11.660647001958424	21.09829513465916
O	16.796846912458843	-13.152645913436066	21.029449331942835
O	18.891896575981235	-12.092467129233134	22.42702269990751
O	15.491321847924743	-13.230931839316376	20.467966861807906
O	14.94924852438947	-11.833438519275633	20.293564347003077
O	14.754187722303728	-13.71608247187146	19.34522705578535
O	15.068320725498259	-13.227932405725753	18.195519700022242
O	14.851476115364282	-15.108537974563154	19.299133536932885
O	10.815280825973051	-10.641234876697125	23.793660585538028
O	10.363606493990378	-11.648087176728602	24.41548497525393
O	10.35647824945221	-9.507188176882403	24.464717151861688
O	19.842667086640073	-11.360971061723484	20.44549212274212
O	21.062563138054095	-12.117946495157739	20.976658376528306
O	18.722294574455507	-13.490569154357008	24.034696839416803
O	19.28828276512294	-14.799230863469825	23.93578829827519
O	20.364180189716457	-14.891608403888332	24.962043243337355
O	20.623301589796284	-13.761342931934868	25.90308766140738
O	20.106937918362945	-16.114445521550245	25.78958492725605
O	21.56853393799683	-14.914609371207556	24.1022010025456
O	21.34211141860429	-15.914281339924	23.056835018619466
O	20.373863331865227	-16.88859563059902	23.56600876439568
O	20.675047740941984	-15.32693077651676	21.897028394034734
O	16.699773242355253	-14.795641419023603	22.54278419522157
