29

O	18.289827258511647	-11.985994723757093	20.937798928209755
O	18.53286186651348	-13.226034041607932	21.625835862237512
O	19.38745564299958	-11.790038482632646	19.93169944678535
O	20.429794034248424	-12.83355024600189	20.25886750120376
O	19.595760367364427	-13.901788846266088	20.92833976821957
O	18.09566182339171	-14.988306182506104	23.35007550722085
O	19.854790766307833	-14.30329885489213	24.98617105187136
O	16.946273337346216	-11.938640478925782	20.33403825928535
O	19.929617470497345	-13.264625595981862	25.907238978760063
O	21.166547734511674	-12.82387137627222	26.347877342193563
O	22.294988918124613	-13.090649684435457	25.58279380961572
O	22.082966873545708	-13.70376082092059	24.370703143428877
O	20.8687110815918	-14.306173159944493	24.051397546558132
O	16.8808489674341	-15.802468129201895	23.30965152655733
O	17.81491919267799	-13.64626661018881	22.768108463271933
O	11.160207866453248	-10.847862901539283	23.98323140029304
O	16.53320858993452	-12.950262635701117	19.732673733120713
O	16.191359923350465	-10.745242253423072	20.33899294577827
O	14.908407018239961	-10.784710997664941	19.641562848765187
O	13.86937462194915	-10.956223296043486	20.669375674860767
O	13.478797062215818	-12.11997668781349	21.25410941659558
O	12.664897184218706	-12.054143204535757	22.352308290117307
O	11.99016916775819	-10.981882007245964	22.814889776376468
O	12.618602638034753	-9.856906866961939	22.436084988415008
O	13.504912304954365	-9.87791605318206	21.408875222438265
O	16.686192350298505	-13.146726577619946	23.059498840390035
O	18.530281207621872	-14.9199466485416	24.786338882254604
O	10.486831938423357	-11.83976387215025	24.34508380306514
O	10.421072587580234	-9.723926548831349	24.36347460225409
