35

O	13.581684253974554	-7.68258106544139	24.020916475047926
O	20.93310971110136	-11.856597040455753	26.72826561910817
O	21.792172150388676	-12.693949868015313	25.941659587012992
O	21.492508068868773	-13.9275495440865	25.445024187421428
O	20.139860688022132	-14.024810371428474	25.590436130568968
O	19.437904125763	-14.89545167634667	24.884294987946536
O	18.51518719482524	-15.904493938221481	25.491936119464867
O	19.593597869635225	-14.937626757886907	23.54242404283418
O	20.977650093245234	-14.972046296117634	23.34555695470481
O	21.21885190753488	-15.273783758813032	21.894404711172776
O	21.909773557506142	-14.44091787502061	24.218801711734958
O	23.136345547251892	-13.956399239972459	23.677351689099897
O	18.207324229033127	-15.426642236893288	22.67479783464354
O	17.49380219075708	-16.529946507456906	23.468962305895587
O	18.588821445548156	-16.079789125413228	21.43208101391779
O	16.980116267895347	-14.266892077235699	22.36501607777676
O	17.04804157451892	-13.907675449986225	20.947889667374167
O	16.25110133506658	-12.776094501264822	20.49835413549674
O	15.315980709331651	-13.073291397104015	19.479262748855046
O	16.89627316386758	-11.502353090655136	20.139421809733673
O	17.410739376018093	-10.954941903936072	21.42809417577527
O	18.453056207363325	-11.861270129486506	22.03955595433563
O	19.397353029093527	-12.49921925851925	21.23885469668976
O	20.734269209101775	-12.345118268926566	21.46577496446643
O	21.25251420981081	-11.74546579809591	22.562659937550038
O	20.380576937860045	-11.500532102825545	23.521935152500262
O	19.034233521261832	-11.763639027937597	23.3065526529256
O	15.899881903998747	-10.735673099294637	19.464467820776523
O	14.54393830044551	-10.978499811764054	19.819746889001394
O	14.170356521564205	-10.477923035238835	21.164334873176575
O	13.425492448234813	-11.43255712324523	21.849943347121215
O	12.591493162903326	-11.024626718511369	22.847783635878983
O	12.327761181924494	-9.702837757890595	23.078235914063942
O	13.222357663850786	-8.791099607973626	22.66652507782753
O	14.12046587179033	-9.216714564951493	21.684279623901958
