90

O	0.3652503926807017	6.926228816814737	1.5819379440192995
O	-0.8595885173192983	5.650216956814736	2.594238414019299
O	0.2220125696807017	5.689545646814737	1.7350063840192993
O	1.0072239606807016	4.7844201168147364	0.9636445940192995
O	1.9131158806807018	5.069532386814736	-0.013607085980700706
O	2.533379250680702	4.099463266814737	-0.8253943569807006
O	2.462748620680702	2.7500123198147364	-0.5013228159807006
O	1.3703001706807016	2.5610220378147366	0.27117654401929947
O	0.9470502206807017	3.4936135268147366	1.2143340240192995
O	3.1154088006807017	1.6013873608147366	-1.1204428709807006
O	4.431700600680702	1.7941219508147366	-1.6579021229807007
O	5.3315992806807015	1.1102994018147365	-0.7215552609807007
O	5.221868450680702	-0.3669330831852635	-1.2311932299807007
O	5.5917642406807015	-0.1003036631852634	-2.628190225980701
O	4.587783630680702	1.0338263068147366	-2.885299925980701
O	3.3543047606807015	0.11102359681473661	-2.9815683759807006
O	2.9730134606807015	0.16990381681473643	-4.3896351659807005
O	3.905979760680702	0.028792316814736374	-5.5225835859807
O	2.4361655706807017	1.5228004568147364	-4.524950595980701
O	2.1328121306807013	2.0417512121147365	-3.261516565980701
O	1.4057803106807016	3.0454616158147365	-3.116221415980701
O	2.348072990680702	0.9571315268147365	-2.2779522619807007
O	2.5578619306807013	2.4219840198147367	-5.669947195980701
O	1.1545436906807016	2.8923098728147365	-5.934869285980701
O	1.0364568406807018	3.5256480568147364	-7.166474325980701
O	0.32994278768070173	2.8847569158147364	-8.1446238659807
O	0.6313747086807017	0.002647766814736663	-9.151353395980701
O	-0.48833382531929825	0.8081855668147366	-8.8918100959807
O	-0.5643992223192983	1.8611854918147366	-7.982718785980701
O	-0.8257479623192983	1.7498796568147366	-6.6202581959807
O	0.1729104706807017	1.9342350288147365	-5.7079161659807
O	4.724591890680702	1.3386101248147364	-5.302795215980701
O	3.0041513506807016	0.4330386268147366	-6.7154128059807014
O	6.6401807606807015	-4.687186723185263	4.845693944019299
O	4.1887986606807015	-4.961186623185263	7.654226524019299
O	-0.6082523623192984	-7.179528193185265	1.0891010140192994
O	-0.12146422511929827	-9.071777333185263	-2.1735759839807005
O	2.090421530680702	-6.191453413185265	-3.3941650159807004
O	4.519728800680702	-6.944483433185264	-0.5499903769807006
O	5.299447180680702	-10.246765133185264	-2.2329273719807006
O	4.458999920680702	-9.786213533185263	-5.912014905980701
O	4.798009300680702	-6.778536973185265	-8.1498495059807
O	6.5746727006807015	-3.920700173185263	-12.803038845980701
O	9.353597740680701	-3.6469123131852634	-10.294814295980702
O	10.550877100680703	-7.226708333185265	-10.6762243359807
O	9.260026190680701	-8.104998533185263	-7.2239264259807
O	8.497171410680702	-11.777244533185264	-6.719838045980701
O	-1.1836342793192982	-5.559836013185263	-10.058074715980702
O	-4.404076489319298	-1.9593164231852636	-13.0451376459807
O	-5.125224389319298	-0.6800550731852635	-9.5495242859807
O	-3.9323018493192983	-3.2253155331852637	-6.9315600759807
O	-7.479048509319298	-4.564850543185264	-6.6169392559807
O	-7.645702299319298	-7.482535343185264	-4.126696955980701
O	-4.267029139319298	-6.552938553185264	-2.6054542259807008
O	-2.571141469319298	2.0794430254147365	11.4021168540193
O	0.7858672306807017	0.8861428068147366	12.741236354019298
O	4.155727810680702	0.19643749681473643	11.2105750540193
O	7.905502130680702	0.7422808568147365	11.014434154019298
O	7.721949490680702	2.6202954268147365	7.731527364019298
O	9.163645620680702	6.009650186814737	6.926715004019298
O	7.579084280680702	11.079508356814737	2.3474727540192992
O	-6.846029749319298	5.421563226814737	-10.158445255980702
O	-12.398807299319298	-4.054741493185263	-2.3564541919807005
O	-10.666463299319298	-0.8409545031852637	-1.1960488949807007
O	-11.488703399319299	1.9220389478147366	1.2245584140192993
O	-9.605594949319299	5.125191966814736	2.0023990040192996
O	-8.781823919319297	6.826296976814737	5.3034859840193
O	-7.118115589319298	10.050789366814737	6.4035404140193
O	1.0192863506807017	5.287693636814737	6.124223234019299
O	4.2038653906807015	5.454929906814737	4.047532414019299
O	6.928327740680702	3.2607202968147364	2.544453854019299
O	7.590016170680702	0.30247872681473664	4.8168909340193
O	4.067509480680702	0.33787214681473654	6.2568951440193
O	2.6003008706807016	-1.5903908531852635	3.411148114019299
O	0.8394392066807017	-4.793209523185263	4.305519974019299
O	0.3495622976807017	-3.8176398931852638	7.927293734019299
O	-2.1960690093192987	-0.8842823031852634	4.084991864019299
O	-2.3287328993192986	-1.0900620331852635	0.2713211240192994
O	-1.4328909793192983	2.0971633887747365	-1.6188407400807006
O	-1.3034217393192982	5.873343216814737	-1.8297700579807006
O	0.17761725668070172	8.805878466814736	-3.673273375980701
O	3.0266019806807014	10.220309276814737	-1.6517854009807007
O	2.553949130680702	10.189114886814735	2.0859236240192995
O	-0.22466480831929828	14.805933166814736	1.1849636840192992
O	-4.7269276793192985	12.516328466814736	-0.8521080139807006
O	-5.862256129319298	9.536547696814736	1.2571033140192993
O	-4.282634719319298	6.199191616814737	2.1151829340192996
O	-5.988032179319298	3.2411206368147365	0.5191356640192994
O	-6.657512269319298	-0.005264133185263642	2.3331160940192994
O	-7.653628109319298	-3.463176713185263	1.2176996640192992
