28

O	14.464666965072407	-12.817326248197894	21.565649929236695
O	13.975554749982512	-11.45694992775659	21.94107953802013
O	12.956905099034277	-11.829464955293556	23.01366736498126
O	12.262827643084288	-10.483314855269164	23.269653567921885
O	10.961019186998927	-10.76783734564222	23.873819882519783
O	18.5111029149278	-13.811525528767358	25.604585582348854
O	10.704581978723175	-11.952096009829399	24.27517956119459
O	10.163452510834723	-9.830989881190392	24.55465349041657
O	13.603581870665476	-11.56493655843757	18.295323799638407
O	15.917652531424993	-10.511851590656848	18.896509200171778
O	15.951273743647876	-12.451196308252618	19.930578553759922
O	17.081362754059874	-12.411763865246769	21.627162742297347
O	16.64990367434642	-13.472876306415003	20.80992501885585
O	15.567208755990317	-11.055337548571032	20.23435097061913
O	17.231431363383276	-11.375265013662524	20.516161602378585
O	13.471087553783669	-11.740833592617657	19.505766194767855
O	14.415191202087984	-12.830175425476636	20.012775747458328
O	20.76913323040435	-13.448149818954791	25.139401578741314
O	19.597738533418198	-13.006076441433512	25.74677027188142
O	16.051851425323683	-14.542876726470553	21.533719556916445
O	16.623252158929592	-14.983853710906175	22.72929747289043
O	17.253426399522976	-14.027985082246548	23.43287847072964
O	17.597622707565915	-12.91092977920239	22.743351499706073
O	18.335463907067115	-14.388177921336919	24.376906394591295
O	19.470492468199485	-14.960907962759013	23.809477896493696
O	20.71287078845973	-14.502670239105836	24.23543183170571
O	22.1679564381015	-13.381535942638438	22.63935937341781
O	21.785511680801967	-14.539999468295258	23.332349686041223
