77

O	-4.944899536333333	3.579857343607843	3.6025461732549022
O	-6.567169346333333	3.740784953607843	1.9216545332549022
O	-4.727965026333333	2.717250403607843	0.5660239402549022
O	-5.182839966333333	4.146657503607843	2.251502943254902
O	-3.114592016333333	4.297318843607843	0.6408470212549021
O	-3.5863745663333333	3.346492813607843	-1.8469274167450977
O	-4.362962986333333	3.767245273607843	1.1120907432549023
O	-1.754074103773333	1.8809593536078433	-1.9735590467450976
O	-2.625170711333333	5.553585433607843	1.1565552732549023
O	-1.155818782333333	5.650430043607844	0.8746805042549022
O	-0.879116783333333	4.587915523607843	-0.17406664974509778
O	-2.085954226333333	3.8127070136078434	-0.22450246674509777
O	-2.483132649333333	2.9604883536078432	-1.3236345967450978
O	-2.744496615333333	0.8930447466078433	-2.4811846467450978
O	-3.232809846333333	0.46395164360784324	-1.1690235667450977
O	-4.027398056333333	0.6882475636078432	-0.15637673474509778
O	-3.7332063463333327	1.3540698446078432	1.2915397732549023
O	-2.582169168333333	1.8746024526078433	1.9366861132549023
O	-1.817581915033333	1.4223118546078433	0.9411375912549022
O	-2.268433409333333	0.45443928360784325	-0.28670971874509776
O	-3.7370461463333333	4.009300533607843	4.313395583254902
O	-3.284275886333333	5.289940373607843	4.442346933254902
O	-2.152956272333333	5.568598513607843	5.206051923254902
O	-2.028782255333333	4.798743693607843	6.356839503254902
O	-2.485109712333333	3.5090570736078432	6.331320733254902
O	-3.168464116333333	3.096011683607843	5.1938539432549025
O	3.438546973666667	0.9808420656078433	-9.243395896745097
O	4.631527903666667	-2.5788320963921567	-9.254326456745098
O	6.883187203666666	-0.10057331639215672	-1.4279857767450976
O	8.047671093666668	3.120083133607843	0.23929432325490219
O	4.747866663666667	4.714317733607843	-0.5595635967450978
O	5.421811553666667	4.225465763607843	-4.321131886745098
O	8.165872923666667	6.780443173607844	-3.9496621867450976
O	7.346228143666667	8.920819693607843	-0.9035168817450978
O	4.031716503666667	10.111147973607842	0.43530499125490224
O	0.17200697366666695	14.003241743607843	2.230762353254902
O	-0.20473762633333292	13.802286943607843	-1.5099676567450977
O	2.991250433666667	15.650927843607843	-2.3594721267450978
O	4.586724353666667	12.461233243607843	-3.652281066745098
O	8.583432363666669	4.281750543607843	7.273391023254902
O	3.5375146436666665	7.512763473607843	6.293294193254902
O	-0.28758076633333296	6.986531603607843	10.405831743254902
O	-0.39584654633333294	3.505892163607843	9.115751493254903
O	2.278235983666667	2.927198673607843	6.479180513254902
O	4.341810643666666	0.8971068386078432	8.948993693254902
O	7.617600863666667	-0.3369178463921567	7.368123733254902
O	6.356445583666667	0.3114305436078433	3.821970163254902
O	0.11732890366666693	-6.468668026392156	-11.162239356745097
O	-1.2247542743333328	-4.130052276392156	-13.831943556745097
O	-3.4618992263333332	-2.275029846392157	-11.397353956745096
O	-12.343356336333333	-0.5757295063921568	-7.493268896745098
O	-5.959130836333333	1.3564573356078433	11.241983743254902
O	5.5634744236666664	-5.4388535163921565	10.022392683254903
O	2.3390755536666665	-6.1010087163921565	8.090562913254903
O	0.2652680436666668	-9.149482856392158	7.3069292732549025
O	-3.069616936333333	-9.439952156392158	5.519683283254902
O	-4.356676506333333	-11.841562556392157	2.862705003254902
O	-4.766302226333333	-5.837620776392156	-5.179140946745098
O	-5.794673466333333	-2.2158383563921564	-5.862635946745098
O	-4.590056266333333	0.9646033206078433	-7.306890886745098
O	-1.603267929333333	0.38233679360784323	-9.557067016745098
O	-0.701662176333333	-2.8662239163921566	-7.818995256745098
O	1.164995583666667	-1.207657816392157	-5.090539946745098
O	4.770888153666667	-2.2197471863921567	-4.525290036745098
O	1.5528109636666672	-4.900563176392157	-1.8345201167450977
O	1.2644663636666669	-2.089161676392157	0.7149979142549022
O	-2.340782004333333	-0.9914384063921566	1.5599765032549022
O	-6.234421776333333	-1.6668506463921566	1.7442391432549023
O	-9.734211026333332	-0.11081699639215681	2.0229029532549023
O	-11.278431246333332	-0.1422236263921568	-1.4572499067450977
O	-10.456403226333332	-3.271840896392156	-3.4733381667450978
O	-11.715057596333333	-6.2124174363921565	4.087133633254902
O	-8.242830866333334	-7.685816906392156	3.391701143254902
O	-5.207685556333333	-6.529187416392156	1.4743831832549024
O	-2.254057684333333	-5.5755122063921565	3.629086113254902
O	1.332491203666667	-6.531252006392157	2.789662593254902
O	4.673192103666667	-5.406048436392156	4.101539223254902
