32

O	16.749883962973318	-12.971391262673356	22.55842675747147
O	19.037292224800822	-14.765684750247166	23.921256797693378
O	19.40995389521242	-13.495662523785722	24.58497561640433
O	17.14322970883813	-15.64763232585987	20.02200354661825
O	20.59040548419203	-13.823311412725282	25.51931967853148
O	21.868218601417265	-14.005083698395243	24.74875535664628
O	21.566887952706622	-14.944838791499297	23.6139783923873
O	20.23845296593766	-15.608025737969857	23.772906456184476
O	17.215014224092766	-15.655911056364378	22.701399582054005
O	18.286162682106454	-14.711185745867013	22.63969789115955
O	17.90864591884236	-13.360406192462248	22.201363227236
O	17.214814050126506	-15.728333523630715	18.588061107151525
O	18.560748941279016	-12.844002751905345	21.053391935048953
O	18.3267714764217	-11.5827543493499	20.34724366447321
O	16.94163955297958	-11.595194869908008	19.838815477609778
O	16.525119045812964	-12.645465236439392	19.315693021016994
O	16.083250317030412	-10.492682801535864	20.00769046586544
O	14.698446902592796	-10.669969556800526	19.574916759037603
O	13.909234292477343	-10.888344932059564	20.81427320667064
O	13.194660985669822	-12.01023151938621	21.111416003009175
O	12.496602739570172	-11.996524375297984	22.317074371698087
O	11.949401785562982	-10.905748197450805	22.884994145986823
O	12.458000984585613	-9.756918095036678	22.391114763089917
O	13.358164886570105	-9.776779452473294	21.376156429771726
O	10.93239693624744	-10.78247112494412	23.886071572815613
O	10.593684799445795	-11.767190523660652	24.58603912445733
O	10.499601890949119	-9.601619082662815	24.504963220098354
O	19.385690023213716	-11.96630892306656	19.35328365066954
O	19.47797826106097	-13.30728821634067	20.026517149413486
O	15.997490410100468	-15.153956141597714	22.144841819053095
O	15.89581085837576	-15.469997561332837	20.715892110511348
O	14.875668455424123	-15.135463513736077	20.09697612750788
