32

O	18.357846011286746	-12.589281485339319	26.24359430233517
O	10.776868747587407	-9.610865502267565	24.02486712427738
O	10.58008382878819	-11.543713076336543	24.396307860860023
O	11.447359818165552	-10.66215518814446	23.75127615250098
O	12.407985720679209	-10.901871596274464	22.716972533017604
O	12.999216288628574	-9.853799991557132	22.139948247434894
O	14.143955060986828	-10.072836577238002	21.356726890710007
O	14.443107677570655	-11.1428283961746	20.600034353058593
O	13.4508754523584	-12.11628278154023	20.844997773944726
O	12.711346629525828	-12.016406976684424	22.05483108781049
O	15.693928531692029	-11.316050787812026	19.912195583300058
O	15.686358507908729	-12.511511556647154	19.071361260963922
O	14.640004446685914	-12.261640393268994	18.080532676244083
O	15.296139763560147	-11.573523679747247	16.88782210899335
O	16.7077191410913	-11.271580472259012	17.296473090277956
O	16.88259689400771	-12.381028326889044	18.295210202572846
O	17.98223177834893	-11.939264926072092	19.2132247953293
O	18.406020564275842	-13.216231827521508	19.707624864137866
O	19.62961333933387	-13.95987671735045	20.035297835480733
O	17.692408674521783	-13.416283581879963	20.94682060725524
O	17.65274270498806	-12.084074341833603	21.375103257307153
O	18.5224829203377	-11.770263976989725	22.221808847337144
O	17.1332147540934	-11.187979888190394	20.23827735047231
O	16.73852266736665	-14.321212252023903	21.434724016464056
O	15.666996718385617	-13.544348800850356	22.425973698356994
O	16.08484502711984	-12.43340597676114	23.091224073952443
O	16.623570677111786	-12.238616529404547	24.380593199611805
O	17.515674247471512	-13.106972454627424	24.791491664399352
O	17.16461453453141	-14.400741120375269	24.476003917729223
O	16.09447552745769	-14.448758415382251	23.51872328458504
O	18.84661594151879	-15.365797798863241	20.05804093432567
O	19.90972893121928	-14.037016001754836	21.551729822079658
