41

O	17.19328939503807	-14.881591210963451	22.675525480051757
O	16.93853497949706	-13.518761918321015	22.09512708868349
O	15.851313537000948	-15.45512641507631	23.02767509983257
O	17.534285470480796	-15.753081450424702	21.464665543100953
O	17.685476643653004	-13.19023697374117	20.893366076071324
O	16.80837138178851	-12.600546633249703	22.925228975860975
O	16.441818766222223	-17.080270391608853	23.37365711725492
O	16.28299023820263	-15.639747573382833	20.642412824990355
O	19.09259953707238	-13.162636182710772	21.398504029741414
O	19.360367157542306	-12.99512257452525	19.054124186131027
O	17.864704917290368	-16.839691234747576	24.44119061831313
O	15.500373583504128	-17.897229196311123	24.113412205687283
O	16.862512559796798	-17.79601886110857	22.16238424755527
O	15.398333793063223	-14.59421902969414	20.847893842453534
O	16.330509210616746	-16.142698586929875	19.539324199255503
O	20.06937661524493	-13.534662558097398	20.322122492128578
O	16.593081342769658	-12.344054973047788	18.670127463134264
O	19.008266380696703	-16.55942283585693	23.734861413463207
O	17.652318462573536	-15.80441211875676	25.349924367624087
O	14.295407527668665	-14.171159723735233	20.02879190261453
O	17.35227025216014	-12.278762888970704	19.88691566130333
O	16.031433226437336	-11.242814586867162	18.296589546840295
O	16.212156389821022	-13.291181266181036	17.707290742720325
O	20.026733293936303	-15.736498754865808	24.222773001071406
O	18.70367602525012	-15.263536008355707	26.09781641194723
O	13.289568850800471	-13.390042609657836	20.782114981173144
O	18.754974295925713	-11.728893408753596	19.47316162293858
O	18.479838140312523	-14.135581380803478	18.65726302533323
O	19.74077684842779	-14.851145485162412	25.263154922793063
O	20.85170991844016	-15.210329267936663	23.274674542422627
O	13.781523639902279	-12.699074432451695	22.00984204668971
O	12.801215870449365	-12.282409414988	19.91788903277128
O	20.265522401184185	-13.58633730642938	25.292722099509305
O	21.675474108452246	-14.131674112345994	23.472652384208622
O	12.797839203543354	-11.779317504579637	22.457568900140707
O	13.395092134447076	-10.942494647080201	20.223647783142177
O	21.270153490026786	-13.209426767989182	24.40005177007093
O	12.569600645389974	-10.663377426008282	21.523245351382993
O	11.523051925842655	-12.397709793681333	22.696376918162358
O	11.30977405291425	-13.426627196682348	21.919317309017178
O	11.131939624947062	-12.60343168025754	23.998654435143767
