35

O	18.33438538316809	-16.474823968276112	26.200360739386543
O	18.863134621939096	-15.219492928900657	26.219729902257857
O	17.19689117899408	-16.839758226877855	25.46997423179579
O	19.008408042051478	-17.486436036387452	26.784056913234195
O	18.17135826859432	-14.279889254123457	25.538732991728736
O	20.20299121879132	-15.117712967461479	26.464341713533063
O	16.899978728052574	-16.02748207039358	24.45070303607286
O	20.38696732805079	-17.457617689350755	26.961145273972388
O	17.177865364224452	-14.67825287228656	24.639216888343764
O	20.993647658239524	-16.265824983326553	26.575695534635706
O	15.97297534818677	-16.63415389459018	23.137091303744835
O	16.777883733229757	-15.835961213349162	21.894813892477686
O	14.572830993553849	-16.24215828757304	23.36603351574832
O	15.893249875981024	-18.116138060481838	23.164880986405173
O	17.50106350949151	-14.67416227428583	22.118100164142454
O	18.92869513775768	-14.883075525551863	22.364797631655648
O	17.103582273651835	-13.444445751123066	21.445053529279555
O	19.080664464088343	-16.31385087146753	22.723094693785274
O	16.94387119833883	-13.075985891952632	20.096353906997233
O	16.602403325750352	-12.616106038121057	22.22797641487278
O	18.57015790486392	-17.192542023652532	21.824995532455965
O	20.15818230596274	-16.66205331201005	23.447255793836067
O	15.652477585942567	-12.590573442758727	19.688986924120115
O	18.821087191682366	-18.519977163259444	22.00912355515544
O	20.331573399991594	-18.017931996978263	23.697835832616388
O	14.604734827595513	-12.410012973926806	20.745253773126638
O	19.439959439363275	-18.94782096720985	23.17735482548835
O	14.18843546659181	-13.648467210947498	21.5339912300711
O	13.32496285342377	-12.110200404720768	19.952720718801388
O	13.824247560779673	-14.774683380824019	20.727226981294592
O	13.408412742949421	-13.3152674343518	18.938863928641744
O	12.711967313386776	-14.403598304107852	19.783013229354445
O	14.594821383430215	-15.75561596927701	20.090708683718855
O	14.467851497844599	-17.062520751373768	20.285892792984065
O	15.536371426013652	-15.618821422837044	19.00598189225693
