33

O	18.313189628075644	-13.320004250054684	21.288009531147054
O	18.14349662700819	-12.02598105077137	20.702522996854157
O	14.80689739641059	-10.489578633131307	19.940734595202084
O	18.04170726619938	-14.951694699457658	23.085905623866005
O	16.725359361509543	-11.980491081342771	20.213431480613927
O	16.42684626649633	-12.469408947612022	19.122202448918678
O	19.02299151410768	-11.895101023820697	19.501998381921894
O	13.839425780682964	-10.618181213172925	21.097169421343832
O	19.233415705780203	-14.494325224357173	23.823702698184192
O	19.82798964296671	-13.157125455379619	19.451680937622747
O	13.155603603102112	-11.824587039960052	20.92546622068189
O	19.44478055302477	-14.811808636859123	25.26137633508191
O	20.467966905249114	-15.058520627432845	23.127378463272187
O	13.445718263220378	-9.546242858408794	21.871550149156388
O	19.490344659384505	-13.89770916235581	20.701435245051716
O	12.330506238297458	-12.049515772482742	21.97132231062191
O	20.64163463973312	-14.056919440656866	25.763462162615067
O	21.745119745421658	-14.46261371394434	23.64529193858738
O	12.613939339633744	-9.804077587529104	22.981277168424885
O	11.790617850684125	-10.84017366966258	22.425755769242397
O	21.903691783687385	-14.597601326713313	25.135264952584222
O	14.95933218091393	-15.073583025252741	20.66849574866572
O	15.296018810017262	-15.956056866988561	21.51976106086654
O	11.99705383135938	-8.533307043998015	23.968746455882865
O	13.715119153390312	-12.967838817852849	20.34073031515368
O	16.952969180964175	-15.624715394460999	19.387586035416376
O	16.987803138303114	-16.751220089092726	20.431699243558516
O	17.504785634777022	-13.774480762089718	22.366929389823156
O	17.200177277908182	-15.775713998703955	23.877998284820006
O	16.631660658213764	-13.101803584410453	22.945012099662883
O	15.547936442092174	-15.223056230329007	19.393707804072633
O	14.129328555729376	-13.988132786408475	21.179381479174076
O	16.04439843758823	-10.810812673195858	20.56896970663901
