33

O	14.7711393278614	-10.597091913476754	19.18580286013112
O	16.00410856777893	-10.649649987809067	19.913084867251765
O	15.923086469720596	-8.812191285055857	17.497074882648608
O	11.720531741355334	-11.33119031119703	23.019105717152915
O	14.40855908510773	-10.4322134533956	16.653297729333048
O	13.719203528550153	-10.028702385767996	20.092585041652296
O	10.212687910297138	-11.833882478693155	24.806630271223614
O	16.35803078407062	-12.85820408623383	19.422204126463537
O	13.355254808889793	-11.047978766717275	21.17590492284578
O	10.594434307645962	-9.597127336272145	24.25357005057811
O	16.664311260536802	-12.559327301473822	22.779670782515034
O	12.270502163555332	-10.431207515285552	22.052624769628164
O	18.443674704348833	-12.842261650675992	21.24613575771679
O	16.838990042606333	-17.059618522683262	23.77879178071411
O	11.007099983742476	-10.946759062799266	24.005993803360056
O	16.626645897377273	-15.234783087580894	22.460492860329843
O	18.160675542146514	-11.653480599437726	20.49746466514703
O	16.820093359454805	-11.79892535763741	19.89204316071297
O	19.202816554621663	-11.556768837581522	19.422321330115665
O	20.188218410318328	-12.653785240708022	19.75806067246914
O	19.284779754786804	-13.669933745514562	20.41953705910173
O	17.7306448272829	-13.162140490012295	22.448733399065656
O	18.217807190791714	-14.761094884582075	24.313615130289648
O	17.847642137987346	-14.556674907237964	22.892825796101175
O	16.60910709413115	-16.631776953665103	22.60569421933282
O	16.43765621755093	-17.667759959540028	21.559566864515965
O	21.924370457333836	-14.388901701562808	24.489454955601474
O	22.027613132987913	-13.445836054349563	25.50434408495168
O	20.9133584092682	-13.16286299283231	26.284353925298596
O	19.64997533254249	-13.41608674363961	25.763146164132195
O	19.518122527061973	-14.114097689991297	24.567760781686886
O	20.650885358332374	-14.813656521604631	24.16858649421664
O	14.927257341519185	-9.779939315648603	17.86695830419597
