77

O	-1.211063791380952	-1.376510027479365	-0.14670771461904786
O	3.2935089266190483	-8.246670777479364	3.5248230023809524
O	3.542118876619048	-7.476816587479365	1.8645063623809524
O	3.295722076619048	-5.796393897479366	2.5015212723809523
O	4.366097416619048	-5.215013017479365	2.9935585523809523
O	3.825693456619048	-4.060024927479365	3.4427040023809523
O	2.585816276619048	-3.925479947479365	3.0239595923809524
O	2.262135636619048	-5.203100267479365	3.150965862380952
O	1.687128556619048	-3.0963425874793646	2.273007832380952
O	0.5572887216190479	-2.7717497674793647	2.946000502380952
O	-0.4066223633809521	-2.148696557479365	2.228922602380952
O	-0.4785120553809521	-2.4182392774793646	0.9152765993809522
O	0.1006830426190479	-3.569363277479365	0.5186326073809522
O	1.380959056619048	-3.572735077479365	0.9932192063809522
O	4.212862986619047	5.3259278625206345	0.9730387183809521
O	4.342043226619047	6.152700062520635	4.692509292380953
O	5.889124816619048	-3.0307592474793648	-7.641560147619048
O	3.729557126619048	-0.2148553552793649	-8.891313157619047
O	-1.803426243380952	-6.559912917479365	-8.659242167619048
O	-1.735868453380952	-10.305580067479365	-9.263751667619047
O	0.44163017561904794	-10.703651887479364	-6.184909817619047
O	3.143131856619048	-8.590630547479364	-7.821164057619047
O	3.600565066619048	-11.389931487479364	-10.349380087619048
O	-5.828423883380952	-9.367783257479365	-6.804428037619048
O	-5.543693243380952	-8.078574417479365	-10.344916387619048
O	-2.307968983380952	6.457275542520635	-3.5366236576190477
O	1.1102837466190478	6.932577362520635	-5.150742157619048
O	4.285829266619047	4.8876138525206345	-5.279430077619048
O	8.026516226619048	4.488102342520635	-4.746792577619048
O	7.616830876619048	2.0814964125206354	-1.8366672876190475
O	9.161541756619048	2.3274420525206354	1.5960890443809521
O	8.666487246619047	5.351720802520635	3.7388729223809523
O	8.359243996619048	3.3713397625206354	6.903855352380952
O	7.396148546619048	-0.10574874347936492	7.995810742380952
O	10.847578726619048	-0.5732501674793649	9.493551972380953
O	13.955937126619048	4.571835842520635	4.228360802380952
O	13.441590326619048	4.7919806525206345	0.4626255593809522
O	7.387680436619048	9.488411632520636	-6.240806637619047
O	5.313953596619048	9.747498912520635	-3.0714222376190476
O	1.6526810766190478	10.666709112520635	-2.717746037619048
O	-0.9031193323809521	10.347622912520636	0.1107456023809521
O	-4.653755373380952	11.044867012520635	0.16825280338095217
O	-6.751912003380952	8.630569772520635	2.263036492380952
O	-8.554523123380953	-12.073415087479365	7.077602482380953
O	-13.757791873380953	-7.358117257479365	-4.477868697619048
O	-11.780576573380952	-5.387906897479366	-1.8622314276190477
O	-12.205938873380953	-2.0876549074793647	-0.08508041561904789
O	-10.092325643380953	-0.4870476554793649	2.6402522023809523
O	-8.860442663380953	3.0746772725206353	3.125406612380952
O	-6.911297053380952	4.978874552520635	5.761814402380952
O	-0.640669673380952	7.565682082520635	5.827577872380952
O	-0.5438441203809521	4.182718612520635	4.097988142380952
O	1.0161911566190478	2.2225226525206354	1.2907834193809522
O	3.9130419366190483	-0.021751390479364918	2.140940562380952
O	6.187935826619047	-2.3925002374793647	0.4693287543809521
O	7.112918026619048	-1.385340057479365	-3.0565255276190477
O	3.737131706619048	0.3847848905206351	-3.508262267619048
O	1.9348962466190478	-2.913288637479365	-4.188946157619048
O	0.0743574756190479	-2.8921198274793647	-7.548287527619047
O	-0.009947933380952068	0.8681083325206351	-7.8682751076190485
O	-5.174761543380952	-1.299587721479365	-6.761671917619048
O	-2.7953233633809518	-1.476191337479365	-3.812610427619048
O	-3.2599940133809517	-5.141808527479365	-2.619336277619048
O	-2.3625923033809517	-5.827269807479365	0.9860572503809522
O	-2.193319053380952	-4.838660187479365	4.591199912380952
O	-0.8574265663809522	-5.698240797479365	8.032306972380951
O	2.349077896619048	-3.7225839874793647	8.552681122380951
O	2.268239066619048	-0.2326484594793649	7.1816927023809525
O	0.5191792996190479	2.769786862520635	8.766806962380953
O	-0.31432915238095205	0.864099662520635	11.942813312380952
O	-2.984705303380952	2.3262544325206354	14.242249812380953
O	-5.126259903380952	-1.250979546479365	10.516298572380952
O	-6.167751623380952	-0.1588375424793649	6.997487982380952
O	-4.773262103380953	-0.6529182494793648	3.5809520423809524
O	-6.782434703380952	-2.9922658974793648	1.3719190473809522
O	-7.374050403380952	-2.320739957479365	-2.308697107619048
O	-8.642451763380953	-4.370649187479366	-5.182220387619048
