33

O	16.177900900941967	-10.657835893392093	20.099023859145838
O	14.982177759391536	-10.60123038522892	19.321040539490074
O	14.60648260839793	-10.81837122553601	16.814699967387707
O	10.480871330843485	-11.743089638135118	23.286694191467713
O	15.98671910080195	-8.992219305350286	17.3903733969326
O	13.788775280005114	-10.021822960051706	20.008052288679604
O	10.12832773945051	-9.782784557539411	24.36444681440418
O	16.432414820817794	-12.889145549664772	19.644830694344556
O	13.222520790885552	-11.120973188860507	20.902765856999007
O	18.594542225525537	-12.930974956279595	21.47258569834692
O	16.751217044159613	-12.703591341846291	22.91677064028518
O	12.005238750621256	-10.511320111410752	21.526336414896285
O	16.683940382291105	-15.521380392513535	22.55715141312477
O	17.776580761186764	-17.51322562566796	22.655640472576078
O	12.218354641395688	-10.220622202216145	22.975081420626406
O	11.01284309602526	-10.65580569040862	23.70320252589533
O	18.309981919257595	-11.777684312957689	20.665642681288947
O	16.960481167230373	-11.828223225175414	20.036517552336356
O	19.464837381306207	-11.763425292546527	19.710644600185027
O	20.138685137062893	-13.069165198944734	19.81488707525068
O	19.758293607545188	-13.587647444040869	20.956983178445828
O	17.761957436124533	-13.335539347650005	22.554740761031383
O	18.3845235235162	-14.920486499989224	24.25988521888785
O	17.844142613573133	-14.765414063712882	22.88977527752774
O	16.838198819964518	-16.862344207895234	22.15476021473281
O	16.053213171997918	-17.52680434104946	21.076254709250215
O	21.907296512749706	-13.741286786018478	24.34386475744186
O	21.923767803938052	-12.867395488088238	25.398708697644345
O	20.783305989297357	-12.721059714882102	26.14279224076972
O	19.567974481356075	-13.150388571854815	25.616303729291744
O	19.515065615907172	-14.008524865055609	24.519451450674985
O	20.762058816263224	-14.448224748414303	24.083208647465657
O	15.085090172493791	-9.96232866196039	17.9187667702503
