77

O	0.3613815337678574	-5.44066743978375	3.560153956382143
O	1.1428280237678572	-4.46701586978375	2.855891406382143
O	2.5829353237678574	-4.98638659978375	2.862445596382143
O	2.5598995137678573	-6.18805667978375	3.751125376382143
O	1.1348932737678572	-6.62885417978375	3.685829476382143
O	1.0421939837678575	-3.2021416797837503	3.650571206382143
O	-0.8248263612321426	-5.27523549978375	4.3500245363821435
O	-0.5759879112321427	-5.41583632978375	5.831424846382143
O	0.9971589237678575	-3.25846001978375	4.900801346382143
O	1.2150631937678575	-2.01447078978375	2.9071093463821427
O	1.0518907537678572	-0.7649187677837502	3.640489896382143
O	-0.3082820972321426	-0.27839832378375023	3.345488196382143
O	-0.5085319652321426	0.5158875772162498	2.281102806382143
O	-1.6192285342321426	1.2772020902162498	2.043973876382143
O	-2.730374766232143	1.1535795202162498	2.795168196382143
O	-2.5261753762321426	0.32667231621624976	3.843138476382143
O	-1.3738035172321426	-0.34362536178375025	4.165633166382143
O	-3.8968547362321426	1.9102560102162498	2.4638692863821428
O	-1.7890534372321425	-6.02299563978375	3.966669776382143
O	-4.9683268262321425	1.8664618102162498	3.134499246382143
O	-4.199891526232143	2.67754165021625	1.335912950382143
O	9.024702023767857	2.4995315402162497	2.312871886382143
O	8.530390023767858	4.89334213021625	-0.543433353617857
O	6.657131713767857	-2.4544473697837503	-4.2369143136178575
O	7.865801113767857	-6.045708079783751	-4.003926493617858
O	6.417223003767857	-6.23206128978375	-0.487992973617857
O	8.813155673767858	-3.46882860978375	0.610243544382143
O	11.653188223767858	-5.90962722978375	0.05885946138214293
O	10.179220523767857	-9.40036489978375	0.334071408382143
O	7.427511103767857	-10.70496139978375	2.5567823263821428
O	6.739806763767858	-11.49555769978375	8.363286216382143
O	11.035134623767856	-9.758545809783751	5.511642646382143
O	-3.094968546232143	-11.24687939978375	-2.5548858736178572
O	0.11193952376785732	-9.38616323978375	-3.4266199936178574
O	-0.5507709742321426	-9.78001804978375	-7.144061803617857
O	2.2578691637678574	-8.19101057978375	-9.205807103617857
O	3.5460053337678574	-6.15247982978375	-6.256445003617857
O	-0.14471318723214266	9.77168762021625	-3.783917653617857
O	2.8449185637678576	11.07061310021625	-1.803058193617857
O	4.865657213767857	9.72270459021625	1.089280280982143
O	6.325812903767858	10.04534750021625	4.582437056382143
O	4.055353083767857	7.39463170021625	6.062054516382142
O	1.8434380237678574	7.66213701021625	9.103865466382143
O	-4.0204449962321425	4.43091109021625	11.266011196382143
O	-3.4690327362321427	4.57001633021625	14.971822896382143
O	-9.166521266232143	-10.36293099978375	-0.9523649236178571
O	-2.7317391262321427	-5.97731463978375	-12.008853503617857
O	-4.296041406232143	-3.8531450897837503	-9.228565003617858
O	-6.573132006232143	-0.8517001287837502	-9.143821303617857
O	-8.121207096232142	0.9415803542162499	-6.180003883617857
O	-8.504818876232143	4.64065690021625	-5.390602203617856
O	-10.115687886232143	6.72026017021625	-2.661307323617857
O	-5.400048986232143	7.3859219402162495	1.932931042382143
O	-1.9249471592321425	5.93768198021625	2.005359241382143
O	-0.8375034092321426	4.32136741021625	5.2619919363821435
O	2.1336902637678574	2.50769805021625	6.844956816382142
O	5.361757273767857	3.9502254402162498	5.491216906382142
O	3.814250883767857	5.05154242021625	2.171208236382143
O	4.114971183767857	1.5615298802162498	0.7163984803821429
O	6.026500503767858	1.4321411002162499	-2.577936443617857
O	5.623355803767858	5.10903090021625	-3.330803763617857
O	2.4830417537678575	1.8297487402162498	-6.784996843617858
O	1.1373930537678576	1.9498940002162497	-3.178212253617857
O	0.5307327737678573	-1.76032786978375	-2.5293471336178572
O	-1.9328361072321427	-2.60098644978375	0.2233679643821429
O	-5.071762106232143	-1.84611831978375	2.125728666382143
O	-7.196294776232143	-2.65389253978375	5.190881516382143
O	-6.429979726232142	-0.06501302289375023	7.863493106382142
O	-5.988256926232143	3.52118613021625	6.622474056382144
O	-8.660656346232143	5.9346995702162495	5.453172936382144
O	-11.453754276232143	3.65524729021625	6.660947316382144
O	-12.275030876232144	0.6630428742162499	2.1738044063821427
O	-9.967492366232143	1.7692245602162497	-0.678151123617857
O	-6.2317666862321435	1.8097593702162498	-1.163728353617857
O	-4.927876296232142	-0.6945765667837501	-3.645757453617857
O	-2.2451733862321426	0.11065040921624977	-6.200049723617857
O	-0.08749456123214261	-1.9713529897837503	-8.459597533617858
