30

O	16.868710559774698	-15.550357070706717	23.184499804567388
O	18.053034709386804	-14.746883157145454	23.054108564883798
O	18.22582040195583	-11.704784690416943	20.736203845640283
O	14.907254813356811	-10.177625919444584	19.56460046093427
O	17.665815424384295	-13.46605687323542	22.43332784015816
O	16.737615763974773	-12.818577597578203	22.95657948893364
O	18.697526485646083	-14.58936163704594	24.399721073564727
O	19.240435952428356	-11.599046691572749	19.631497809554723
O	13.898552798353702	-9.686201949365813	20.552533900758736
O	19.986310635421745	-13.879564327562093	24.399407540046898
O	20.34920029664609	-12.576723148003225	20.00195360514326
O	13.46633723619108	-10.825110197797265	21.472028700562113
O	19.544060372246783	-13.647690466436256	20.685052200194697
O	21.07553044731008	-14.171152438235065	23.6232075651216
O	20.23395937758497	-12.891079855927952	25.34718012192564
O	12.54696583477165	-10.226418940699308	22.500051998004274
O	22.272087329230565	-13.462093402098532	23.707131155364674
O	21.525014689094153	-12.561854111418183	25.74092073670503
O	11.961080643109366	-11.275126195262661	23.332162322523974
O	22.566541171601195	-12.865778697568528	24.90404750095142
O	11.331308183510751	-10.887586126230374	24.37428860575313
O	10.55456405921432	-11.832857605603895	25.063359519540434
O	10.796827454388701	-9.593031932823754	24.508250989394263
O	16.82838102233447	-11.666717732829273	20.270452706198455
O	18.514500441833103	-12.93106762898007	21.433406935995066
O	16.326995315928	-12.636936292441874	19.66052490743275
O	14.976484084652038	-9.456337253793814	18.282786539332697
O	16.15072237757749	-10.430326483188736	20.253813044520538
O	13.78480613790573	-9.566197617849031	17.596513730890294
O	16.197014500278517	-9.614494842778592	17.43920901445955
