53

O	14.644352253193317	-14.39874015151279	18.497061912673427
O	17.742631586014017	-19.632808202027327	20.27777251658532
O	17.787505175399243	-17.320928281455362	19.192583923454304
O	17.418695040384627	-18.352999543750492	19.945590404318338
O	17.33188372355792	-16.130536391130818	19.132422334996924
O	17.025350348051514	-15.339914897803764	17.960665457268085
O	16.30296645900411	-13.975437305108692	18.35422001907434
O	16.719146204464927	-13.566984997185363	19.626717172737887
O	17.370471663749516	-12.289979461847013	19.675671743932952
O	16.45999100888734	-11.499578922900458	19.961224201171373
O	18.80161988609727	-12.350884965715894	20.107151607349596
O	19.843191896108365	-12.378626868308965	19.04039726890222
O	19.945943674417947	-13.88538947101269	18.787672318535563
O	20.064216910183454	-14.416114936058754	20.188631998421247
O	19.049974029678395	-13.630454914429517	20.840612632375464
O	18.018706085427933	-13.766865577327046	21.77406571817708
O	18.33212675180329	-12.92120826305084	22.721649440981977
O	16.742141902678174	-14.47541815741773	22.04501251870976
O	17.102565280448566	-14.690572942917226	23.343455108961912
O	16.493556759630277	-15.848222838570393	21.753342595376427
O	16.00897102082891	-16.79253696865799	22.66964112536452
O	14.76602674678338	-16.401468321020342	22.75330924104708
O	16.077806956089372	-18.163682052437636	22.60383257464989
O	15.298105761256386	-19.103844863812185	23.27274156097285
O	18.258586874110403	-15.745873587330465	23.120758792276753
O	18.647097371461278	-16.464144619452625	22.09979618742207
O	19.400689907136346	-17.583599043481087	22.0830124546961
O	20.264495436761223	-17.829065983557687	23.072857875798164
O	20.134718821151896	-17.019266597410812	24.160502684318224
O	19.082238654632487	-16.179981290882797	24.17116176664133
O	16.854161878775816	-15.298852208789175	24.61557282935809
O	16.5970832897993	-16.576477220320115	25.111461440838756
O	16.48808479358349	-16.94325307709576	26.40578906171352
O	17.663769300690426	-16.72143203936776	27.0726723840284
O	18.03077393070203	-15.433148063753062	26.84748044805412
O	17.907232936809528	-15.011900696191411	25.569478261189122
O	16.309464838758082	-19.78761948917535	24.166072212131304
O	17.667691515894873	-19.72568266666738	24.01284172191818
O	18.38129731134228	-19.324908092062188	25.16128277582007
O	17.985200917968616	-20.00863350526271	26.291969541833193
O	16.635021665209408	-19.69095519145141	26.464440366118183
O	15.83363094807371	-20.119856640185773	25.40639159618776
O	14.634380919709148	-17.064424217089094	19.35506183350932
O	13.989103521128508	-17.910447891472664	20.183595744924375
O	14.378262354666644	-19.262298283800796	20.138706874318046
O	14.766561215827126	-19.854680707190667	18.936424860505923
O	15.077524425663245	-18.87714102740077	18.004506922802168
O	14.605459080783541	-17.601752161615238	18.03631741510514
O	15.549474174520435	-15.145003409288934	16.135653982710345
O	13.666857212214905	-15.625837410423955	17.689088183302328
O	15.121943586104283	-15.716147932498988	19.40990895222951
O	14.73941984416565	-14.315142495067525	16.869434185345735
O	13.854244935149563	-14.380208092538986	19.78298984154144
