26

O	18.179693795898235	-11.70717123240441	20.68232720062251
O	18.431279749506444	-12.96664665104294	21.32448432867387
O	19.17065319662478	-11.538346856613824	19.569777720289963
O	20.18610385489057	-12.62376816688029	19.787845789436425
O	17.925394741251463	-14.839826221620704	22.84549222483984
O	16.716155330490917	-15.612194887130173	22.9667867516153
O	16.78827076247658	-11.783043716462185	20.133708824994123
O	20.886311562713203	-15.269951713263755	23.058649238386273
O	17.60457237475337	-13.488850444501171	22.348990899058045
O	20.117219665559464	-14.197752884757026	23.766980739824145
O	11.136355432892403	-10.796231117163657	24.05119096378889
O	16.406480322486242	-12.753644196325999	19.44850529241547
O	16.049008245619806	-10.554986852968174	20.237093997546562
O	14.733506642501219	-10.651860420444303	19.60069735452595
O	13.75220718514434	-10.90217648728044	20.662761681557686
O	13.374752843000302	-12.058315445554022	21.262656235548203
O	12.593398872569233	-11.978405999704272	22.389813537222192
O	11.990297464358633	-10.903408604296292	22.913741286107392
O	12.551631593052559	-9.797768203301935	22.43313557385933
O	13.492626139163704	-9.842364790858117	21.465954518512252
O	19.372701225654676	-13.670399323125988	20.49440342588312
O	16.531006757984752	-12.930143057166344	22.72809790055486
O	18.7541879735896	-14.7842062371632	24.117118573779297
O	10.45935489662478	-11.80845923466746	24.35154102571034
O	10.530014246424042	-9.735967687684195	24.701558337393006
O	20.930511038756404	-13.806113802798377	24.964754811367275
