33

O	10.498748523179307	-11.782425507635452	24.114529397488436
O	10.72596481327357	-9.781582799547909	24.427882359627908
O	11.194346712103236	-10.838004299537179	23.670070146844452
O	12.242772541126762	-11.105530236331001	22.742686019923543
O	12.66843725047195	-12.310642804253021	22.269966994345843
O	13.812637040170308	-12.486605763950372	21.46709515079437
O	14.440716023287115	-11.397448886225977	20.875248046710794
O	14.135090816475055	-10.295321989161483	21.594849144212965
O	12.887287442909956	-10.104057286760515	22.18206119462169
O	15.548872920125778	-11.355064669834315	19.92719418764563
O	15.642372458196824	-12.415677878982141	18.96542985609046
O	15.242851361865704	-11.811445873625129	17.688925670412846
O	16.58801497581222	-11.143124468547422	17.24410112020512
O	17.419635712572756	-12.352435081931656	17.31819255323487
O	17.033151328315196	-12.770768650622802	18.745063289487263
O	17.873193042753556	-11.680729341734281	19.44395298168949
O	18.954006063616973	-12.420940104703291	20.088494106196507
O	19.76587867279468	-13.465545073715397	19.43766846139551
O	18.268490745991446	-13.116095858736008	21.176461232562374
O	17.02596167218551	-12.518148930356922	21.413483838524964
O	16.379063733503582	-12.73000727897238	22.459313470660454
O	16.94545250457565	-11.31671591986958	20.553127612922275
O	18.541043514571815	-14.455191851343509	21.693080249769338
O	18.6422598721772	-14.274841898655971	23.18234897904742
O	19.184672085714446	-15.389598668310919	23.810854403942727
O	20.434869590727974	-15.26946140534769	24.348677163601174
O	22.994561874424015	-14.209651512137981	23.03121858764402
O	22.444520304013658	-14.04472996881497	24.31194347156118
O	21.09554941828514	-14.110148518761388	24.654054212941823
O	20.175108512185236	-13.07051793506187	24.55946140178594
O	19.224482374866035	-13.076445261744198	23.57969185616015
O	18.64476238448175	-14.533516842291743	19.246383316317107
O	20.53815630796266	-14.051685718991136	20.64579821704788
