30

O	16.927507083053705	-15.632491525608678	23.170737148552284
O	18.086645228054707	-14.782691025109218	23.07644590943466
O	18.087865539174388	-11.754786303117822	20.723404135138605
O	14.75015984709021	-10.316713398586932	19.585331591521964
O	17.660189357014993	-13.50353849535582	22.478327657535594
O	16.642399966157935	-12.946766062309315	22.934405661895337
O	18.6161387150112	-14.498017951394093	24.451269294718347
O	19.15949841674765	-11.565243638358883	19.686966149344613
O	13.672846022434815	-9.773579611887106	20.466445750138927
O	19.925502600748167	-13.834019475031191	24.50966384251364
O	20.263701799879097	-12.550750800177562	20.007017490849023
O	13.348424709172745	-10.856770184548143	21.4904577387816
O	19.468507509146868	-13.65614099457129	20.653109217121912
O	20.961769760379692	-13.97368245174511	23.633662912288656
O	20.184054459485345	-12.911771010793858	25.517600347419524
O	12.28417828472493	-10.260106748345903	22.360870321886726
O	22.176154011496813	-13.305365969424301	23.778150348236924
O	21.42735510921874	-12.431578030185594	25.819814580586968
O	11.742384869771577	-11.355155453484748	23.165650946737728
O	22.489888269674502	-12.774923691372482	25.00112744435045
O	11.202017522122075	-11.001249352248966	24.267883062035555
O	10.5103887205177	-11.82083256021785	25.168792852467284
O	10.701596951379022	-9.702412841255208	24.468808052137884
O	16.71590273335115	-11.716069130693919	20.18552524901266
O	18.381121435076754	-13.005606179327906	21.37272161979774
O	16.139356740461917	-12.718427197545417	19.695757318198645
O	14.83381854256536	-9.542633890902312	18.33357815166483
O	15.971917039619456	-10.523166298041145	20.296893065812988
O	13.699526596694115	-9.540162208490674	17.552435098611504
O	16.024691140857787	-9.714322838230196	17.455108835859047
