29

O	11.725684558716091	-7.837529183851979	24.350864561799188
O	11.986081747460757	-9.289564198521889	23.43468211879596
O	15.826923223248828	-15.489380715369444	20.816359419637035
O	13.49474963923928	-16.250668541892413	20.428724628987286
O	14.284313346169508	-15.216540821618539	21.28468425974654
O	11.345567031312413	-10.499144458926642	23.450832118697093
O	17.638536340139314	-14.630220741325768	22.01453506503278
O	14.279383565162513	-16.05596106683208	22.50467915667194
O	12.07978531232575	-11.525248042338848	22.985040056543273
O	19.676647294247804	-12.95055288736222	21.553923636276853
O	15.86321210484477	-13.17933743315512	22.82276335714493
O	13.126317642108319	-11.274695971542045	22.074771929313744
O	17.95781241550447	-12.17258588364146	22.354232857685986
O	19.954397220747044	-12.856104698476456	18.988599867084627
O	13.571444758566518	-13.685397787932715	21.144188480159055
O	13.05745378335299	-9.610115158994917	22.09395472418414
O	14.265420089440509	-12.176642539846501	19.874714293610378
O	13.601898780621525	-12.365310828048836	21.17176797152939
O	16.112868498621538	-14.09596513117674	20.529674471988216
O	17.38188904103314	-14.219618629492789	19.79682706825821
O	18.06815449153936	-15.143776093926913	20.761199514344696
O	16.494934847345778	-13.727758574354862	21.89781559105378
O	18.4374713743671	-14.269924704474565	23.108272572686204
O	17.8270664638322	-14.600642468843684	24.37939077569477
O	18.92316692252918	-12.939012283904836	22.778200631158576
O	20.485850721519242	-14.007067813859821	21.094983725708826
O	20.746164541472194	-13.71988281693159	19.66917362962779
O	19.61360473613515	-11.680274128359896	19.599446105365523
O	20.19572600656212	-11.691291370626107	20.981510844632812
