17

O	11.214124331511348	-13.078222593402286	21.524227753195948
O	15.643494675339388	-11.415680574038154	19.083995798588493
O	14.711756267874364	-10.75906273883819	19.88765683632884
O	14.295633490714293	-11.353493832224753	21.019296219688922
O	11.370531045539378	-14.358974128524409	19.965283554283765
O	12.064899029339436	-15.271014156094775	21.936304823123834
O	14.976924616611225	-12.514200317747946	21.299439558206704
O	14.481801655089836	-13.719084159244282	21.804956243048448
O	13.30685703894927	-13.475872190563843	22.367954104321665
O	11.965963405964816	-14.069512162793785	22.224570237757646
O	11.569594144579263	-13.09130551495739	20.16380178033541
O	12.596512623986808	-12.897397864670019	19.309209855682802
O	13.567541214199824	-13.738494927824352	18.715224825345846
O	13.448213425292916	-14.969186708890444	19.268178601852064
O	12.08486540393689	-15.335647730004844	19.19372184132116
O	12.985387480155685	-12.187124845363732	22.603029826595012
O	13.33922689990598	-11.011617021406519	21.890581691172404
