42

O	21.87857075392833	-15.096396911983462	24.698737423178788
O	16.223957491420297	-14.56992905063587	21.190288470431224
O	17.026945668580673	-13.402417644798222	21.11554285515143
O	16.694764496481305	-12.366451075083187	21.762007613351408
O	15.101767743343224	-14.777557827995782	20.268108110207184
O	13.900747439322139	-14.066384134456001	20.826815281860387
O	14.011030471733424	-12.818975548656553	21.593634130620536
O	13.11111009414362	-12.523194276071901	22.621924184994047
O	12.027188161943133	-11.9073848220722	22.792980948818983
O	10.893756684231167	-12.724966348966856	23.14494797769758
O	11.76761466836874	-10.550437692969577	23.149737672862972
O	23.10184438935207	-15.14164340580879	23.903549251885522
O	21.87334785520367	-15.538156415863432	26.069487093823856
O	17.187856920222604	-11.767757554544426	18.157100872513368
O	15.808672912403644	-12.204111324036262	17.7259405441339
O	18.070131544012302	-12.93044756788456	17.863692862953883
O	18.401719985702197	-16.26628361944484	21.69646321126113
O	15.973851939807249	-15.425776810621288	22.297677141330052
O	16.867203524288186	-18.07357682997307	22.60446862856527
O	15.818465587368486	-13.444512047257575	15.288527934804478
O	19.28303302641799	-17.078427520019382	21.072840661126488
O	15.020468701358439	-12.088384283637613	18.68317727584395
O	16.403245898122165	-17.286542666603538	20.363203777192197
O	20.486611151343297	-16.453197368947926	20.940134286094302
O	16.184041186902476	-14.666115197551113	17.23590568386284
O	21.028971654286813	-15.865029718011733	22.03964209998749
O	20.217677273407325	-15.571844984464112	23.102040419650095
O	20.707834160230156	-14.639066078215187	24.015125374322636
O	19.75887313447578	-13.703630293397081	24.456228568150234
O	18.43999318804525	-13.719108881773595	23.994713489336
O	17.993250039477623	-15.033861223648799	23.75047227058723
O	18.855703647938512	-15.743346706144223	22.91660711274671
O	18.225282559292133	-13.220422708460527	20.337291261001592
O	18.114572261526135	-13.823576826365674	19.06500956731325
O	15.59642521462898	-13.468906070665327	16.978474105632397
O	19.088061151890358	-14.847456455399023	18.65523107466008
O	20.36683462687533	-14.079041803676752	18.613441900147457
O	15.878120335884141	-15.591267656114443	16.327476666856505
O	20.64461511217958	-13.299137768726997	19.85379004760691
O	16.215242229624597	-15.150830747593323	15.04680797242894
O	19.558504214552624	-13.142845134447628	20.85559523585931
O	16.743002152289968	-16.88977810020593	21.753099232366647
