86

O	1.3258977714018516	-2.4390948951851863	0.16756214437036943
O	0.8106669044018515	-3.3372401151851863	1.1566091153703695
O	-1.3239830655981488	-4.277789835185187	-0.2574254796296305
O	1.4653511984018515	-0.6335625651851865	5.80115411537037
O	-0.022774947598148576	-5.736894495185187	1.0444680953703696
O	-0.001060375598148533	-2.7030977651851864	2.2318913553703696
O	4.4209810244018515	-1.5790501651851865	-1.4414638546296306
O	3.3708839344018515	-3.444004405185187	0.2602290883703695
O	0.6884544087018515	-2.2713956951851864	3.456370025370369
O	6.569584754401851	-1.3989857051851864	0.8610191853703695
O	4.274670934401851	-0.10130362418518657	0.38573563537036937
O	1.7982816144018514	-1.3198439151851864	3.423309885370369
O	8.197351284401853	-2.7941730451851865	0.16800374037036947
O	2.9059226844018515	-1.7953829051851864	4.312824295370369
O	2.8369813744018515	-0.9599994851851866	5.559563125370369
O	3.0185368744018515	-1.8683559751851866	-1.5342320146296307
O	2.6288145444018514	-2.6382477951851864	-0.3373965496296305
O	2.8114504444018515	-2.7228064851851865	-2.7505550646296304
O	4.007969094401852	-2.4440707751851867	-3.6174389446296304
O	5.071565034401852	-2.1185814351851864	-2.6061172146296308
O	4.936951894401852	-0.5574080351851866	-0.5795128646296306
O	6.908224014401851	0.7847933168148135	-0.2690542996296305
O	6.4216602844018515	-0.6217527151851866	-0.37055328862963055
O	7.150502134401852	-2.6775642551851866	0.8860541753703695
O	6.448246674401851	-3.973269045185187	1.1558224053703694
O	6.320604094401851	1.3996567698148135	-3.9627079946296306
O	6.168597254401852	2.7592815548148137	-4.01981324462963
O	6.327189824401851	3.4708416248148137	-2.8568286746296305
O	6.233864964401851	2.7854341248148136	-1.6511263976296306
O	6.625366964401851	1.4544452838148134	-1.5647977686296306
O	6.7799291444018515	0.8134879978148134	-2.7885935346296304
O	-0.09329934159814857	-4.391730305185187	0.4525871953703695
O	-5.8967273655981485	-7.732911845185186	-0.4368924046296305
O	-8.752147625598148	-5.708027705185187	0.9466442753703694
O	-5.613482815598148	-0.3997067391851866	-4.79334639462963
O	-4.034728775598149	-0.6764620251851866	-8.23762537462963
O	-1.0389540355981484	-2.3989089351851867	-6.62145123462963
O	-3.300467115598148	-5.232388095185187	-5.481432344629631
O	-3.800178195598149	-6.1455044151851865	-9.151847104629631
O	-0.7583954755981485	-4.8000468851851865	-10.99490600462963
O	2.8487115944018515	-4.503193275185187	-9.897535604629631
O	8.513762074401852	-5.330738375185187	-10.411219334629632
O	7.158272664401851	-8.347690455185186	-8.60791960462963
O	5.553601404401851	-9.916684225185186	-11.68555620462963
O	2.0838347044018515	-9.174064265185185	-10.346603104629631
O	-0.5936176955981486	-8.898898385185186	-13.013852304629632
O	4.0384830244018515	1.8189607348148136	-10.187055484629632
O	8.168774814401852	5.479755474814813	-8.815069524629632
O	5.861595394401851	6.096686374814813	-5.908317804629631
O	2.4996905144018515	4.374388984814813	-6.440067304629631
O	0.8700408634018515	7.6732906748148135	-7.395495744629631
O	-2.828838875598149	7.181056114814813	-8.253505614629631
O	-2.9807526655981484	3.7753398048148137	-6.562891224629631
O	-8.630623995598148	-5.515080635185187	7.22290726537037
O	-7.524493685598149	-9.131238065185187	7.608991215370368
O	-3.8467627855981483	-8.337342185185186	7.18764514537037
O	-0.9764718555981485	-9.281265635185186	9.444229495370369
O	5.366325144401851	-6.596803035185187	10.794417995370369
O	9.594590064401851	8.627361094814814	-1.4213698316296304
O	-3.1012833955981485	12.033369874814815	-4.515580474629631
O	-1.8389309155981488	10.543595764814814	-1.2209939506296306
O	-2.2968491855981488	11.355204174814814	2.4303520853703695
O	-0.7134030255981486	9.765822024814813	5.49549237537037
O	-2.1964749255981486	8.734889644814814	8.837630055370369
O	-0.9257955655981486	7.304541424814813	12.11080089537037
O	-2.2070090355981486	-1.2303566351851867	8.26535074537037
O	0.1298815884018515	-4.091239225185187	7.27430452537037
O	0.5286342014018515	-6.799034425185187	4.571199645370369
O	-2.8839902855981485	-8.095401425185186	3.5937669553703695
O	-4.669608115598149	-4.808172455185187	4.430881805370369
O	-3.6775388255981483	-3.2339305751851866	1.1421625953703696
O	-6.544942025598148	-1.9761440251851865	-0.9436736406296306
O	-4.5800340955981484	1.4957234898148135	2.0113881353703693
O	-1.6642741055981487	2.0013296448148132	-0.4203793756296305
O	1.7966055144018513	1.7643437948148133	1.0259238053703694
O	4.177533534401851	2.1393665048148134	3.94173312537037
O	7.636493724401851	1.2246574038148135	5.23359551537037
O	7.3018300944018515	-1.7396373851851865	7.54894765537037
O	4.210249254401852	-1.6500162951851864	9.765608295370368
O	7.187518494401852	1.6712743648148134	12.968397195370368
O	6.696190974401851	6.144886314814813	9.867197395370368
O	3.0860108344018515	6.632486364814813	8.668342075370369
O	0.7167137207018515	4.624357034814813	6.508723735370369
O	0.013348270401851492	6.1474564348148135	3.1343146853703696
O	-3.4227752655981485	6.212137654814813	1.5780530253703695
O	-4.7391407355981485	6.928606454814813	-1.8444147246296305
