79

O	-3.2613437706962958	1.9638063224888889	-2.631433453716667
O	-2.6607109246962954	1.2040489934888887	-1.6813691757166667
O	-4.298676970696295	1.3594903379888887	-3.459240153716667
O	-5.704818470696296	1.7503033054888888	-3.4647389437166667
O	-5.843959780696295	3.186433527488889	-3.8800573937166667
O	-4.824115460696296	3.9596955774888887	-3.103414383716667
O	-3.907660360696296	3.2287766974888887	-2.2490244237166666
O	-2.4721518926962958	2.9682341374888885	3.341700606283333
O	-3.6744465706962957	0.6063029884888889	-4.551139953716667
O	-3.885073250696296	2.387975408488889	5.2850605962833335
O	-1.7722237256962956	1.6899625574888888	2.890992306283333
O	-4.799354720696296	0.6546791184888888	-5.516375243716666
O	-1.4998292916962956	2.6313549274888888	5.5911528162833335
O	-1.8951961926962957	1.6993267244888888	1.394728526283333
O	-4.441952210696296	-0.1617894925111112	-6.706891063716667
O	-2.2711932586962957	3.053482507488889	-0.6076188277166666
O	-2.1466312886962955	3.075220457488889	0.8490685962833334
O	-2.9654453136962955	-0.11288050251111126	-6.859282153716666
O	-4.277717400696296	2.6554590974888885	0.1736070092833334
O	-3.5959634706962955	3.340672327488889	1.2401554662833334
O	-2.5692298986962956	1.280437190488889	-6.494733503716667
O	-3.8277825806962955	2.9303618274888885	2.638613396283333
O	-2.6952688246962957	1.6680157394888888	-5.069887983716667
O	-2.656367656696296	2.959100587488889	4.813501176283333
O	-3.6451871206962956	3.379657907488889	-0.8747773187166666
O	-4.605679670696295	-5.0706759225111115	7.166452516283333
O	0.35659594930370453	-11.432261252511111	-4.274166333716667
O	0.23074638930370428	-9.29158845251111	-7.407240693716667
O	-5.789803690696296	-8.498712122511112	-6.037951613716666
O	-3.6280872406962956	-5.673255472511111	-7.250943503716667
O	-1.1148349506962956	-5.354738312511111	-4.4100063837166665
O	1.3514440893037043	-7.1384676125111115	-2.2060086537166668
O	5.808584029303704	-0.41228567251111126	-4.624905773716667
O	6.157458799303705	1.6997519404888888	-7.755548303716667
O	2.580809719303704	2.921641647488889	-7.209563033716667
O	1.3244318293037045	-0.6400406425111114	-7.5980721037166665
O	2.5133523493037044	-0.5320737925111112	-11.243905863716666
O	0.22417906930370446	5.997762117488889	-11.090758463716666
O	-5.426959750696296	7.3837973874888885	-11.932863563716666
O	-2.4227369506962955	3.251162747488889	-13.905359263716665
O	0.5764006393037042	-1.9515332425111112	-15.972508163716666
O	4.613666499303704	12.57928764748889	-2.4507994737166667
O	5.4464896893037045	9.098666427488888	-3.751289283716667
O	9.137550129303705	9.596516927488889	-2.970353363716667
O	11.164215829303703	6.5019922474888885	-3.9515957537166666
O	8.057615829303703	4.287009917488889	-4.126339973716666
O	9.865030029303703	1.1413467374888888	-5.229450963716666
O	3.3057845693037047	-5.933564212511111	7.981939796283334
O	1.3694399093037042	-8.65592335251111	6.123881746283333
O	-1.1821974446962957	-8.60982275251111	3.3280844762833333
O	-4.579464870696295	-9.51145785251111	1.8778101062833334
O	-5.829565580696295	-5.927265282511111	1.8675224962833332
O	-9.036109870696295	-4.646599742511111	3.367748126283333
O	-11.106680500696296	1.655877147488889	5.763900606283333
O	-14.773201770696296	1.4848383000888887	4.924155646283333
O	3.745379899303704	-2.057794832511111	14.514821136283334
O	-2.384118789696296	-0.4810556425111112	9.955249336283334
O	-2.0055488020962957	-1.4812207525111112	6.346767316283334
O	-4.9577165006962955	-0.6451054725111112	4.096449976283333
O	-6.067416610696296	-0.874812632511111	0.42789204628333344
O	-4.692367740696296	-4.019441382511111	-1.1296063107166667
O	-1.6764230636962956	-4.218833792511111	1.2567310062833332
O	0.3211504893037045	-1.7838604925111112	-0.7825986660166666
O	3.6786117193037047	-3.0324852125111112	-2.0319778737166665
O	3.877184019303704	-5.720249222511111	0.5938201662833335
O	7.516067479303705	-1.4406211725111113	1.5931820962833334
O	3.834736119303704	-0.4782845225111112	2.2196773062833333
O	3.6728803093037046	2.8587109474888885	0.38456860628333345
O	1.0167063493037043	5.253717127488889	1.5700584662833332
O	-1.3182228556962956	6.6216432674888885	4.1982146762833334
O	-4.377129050696295	8.748846597488889	4.945660196283333
O	-7.300414760696295	6.412498247488889	5.481771026283333
O	-6.456209180696296	3.263407827488889	7.4405376662833325
O	-5.9086378206962955	2.883044677488889	11.169076336283334
O	-7.008130030696296	6.4663202574888885	11.851406036283334
O	1.3655761493037044	4.227211527488889	7.696183006283333
O	4.247163439303704	5.275959517488889	5.506807956283334
O	6.817998749303704	2.856846797488889	4.170212486283333
O	9.470407429303705	3.046172837488889	1.5232310162833334
