83

O	5.5434417060408165	5.06518660167551	1.2194988063469387
O	4.592064006040816	4.25090142167551	1.858297706346939
O	5.038544536040816	3.76728347167551	3.0967386263469385
O	3.5929546860408164	3.87966823167551	1.1958005663469389
O	-0.8988198829591834	3.01581262167551	-2.612505963653061
O	2.2279075760408165	4.26150709167551	1.1517061763469387
O	2.0438678360408167	4.90642650167551	-0.22135495365306102
O	1.1288132560408168	4.17774563167551	-1.122016749653061
O	-0.2526191519591834	4.18918723167551	-0.45961047365306107
O	-1.0262983029591832	3.22644113167551	-1.1987624916530613
O	-1.1775781639591834	1.7135431856755101	-3.285927723653061
O	-0.7581665779591834	4.10272205167551	-3.254897593653061
O	-2.5666527639591834	1.62998941967551	-3.8487792436530612
O	-2.4226670539591835	0.8454913016755101	-5.123872943653061
O	5.025997276040816	2.46125361467551	-5.844376233653061
O	-0.28852205395918334	1.4256441416755101	-4.3722297936530605
O	-1.0719503359591833	1.30442466167551	-5.606661673653061
O	1.1220687660408166	1.72715077067551	-4.401305073653061
O	1.4829258260408167	2.90678908367551	-5.176136653653061
O	0.38701845604081664	3.23297752167551	-6.131126853653061
O	0.9038346020408167	3.10333519167551	-7.505572973653061
O	2.0352279160408164	3.99223345167551	-7.879414553653062
O	1.1836444760408167	1.7731434266755102	-8.073349313653061
O	1.7317886060408167	1.53185628067551	-3.332331693653061
O	2.6990639660408164	3.05127092167551	-5.798906483653061
O	3.7177743360408164	1.8895345563755102	-6.385885833653061
O	3.1916226160408163	0.3836316816755101	-5.763346573653061
O	4.222324226040817	1.69064058667551	-7.752413483653061
O	2.8037791560408163	-0.7044106483244901	-6.667433853653062
O	1.5447252460408167	-1.2686769883244897	-6.461338003653061
O	1.2104395360408167	-2.4419851183244905	-7.113715903653061
O	1.9937890760408166	-2.89216042832449	-8.164983483653062
O	3.1434717360408166	-2.18662746832449	-8.430923923653062
O	3.2508696960408163	-0.8730547083244897	-7.9778250936530615
O	-7.835246183959184	6.44151613167551	3.999801616346939
O	-6.920258243959183	-2.0118198983244895	3.0595250063469392
O	-8.785195463959184	-3.47797228832449	0.10518135634693881
O	-7.190145523959184	-0.83527252832449	-2.1117477926530612
O	-8.913908543959183	1.89491879357551	-0.0765044236530612
O	-12.240812373959184	0.5993811716755102	-1.3786269596530611
O	-11.481355173959184	-1.2096285883244897	-4.638599883653061
O	-8.923167843959183	-0.4450136983244899	-7.298827283653061
O	-7.154709193959183	0.7224548716755101	-12.650615093653062
O	-8.335768293959184	3.98337718167551	-11.11510033365306
O	-7.113073293959183	-9.50006346832449	-3.3145890636530613
O	-5.092130193959184	-5.60921888832449	-7.4893772436530615
O	-0.2285428499591834	-7.28616106832449	-9.902886963653062
O	1.0588578060408167	-6.63417715832449	-6.441758533653061
O	-1.7985279639591834	-5.8986770183244905	-4.0364293636530615
O	-1.4944036339591833	-9.34915296832449	-2.492761194653061
O	-4.083619143959184	-9.858153368324489	0.29339292634693903
O	-4.7435541839591835	-6.119192788324491	0.6231739963469387
O	-2.4977103139591836	8.44264590167551	10.149437706346939
O	-3.6123644339591836	11.79167066167551	8.74107180634694
O	-1.7742614039591833	11.31197557167551	5.46103530634694
O	6.037636566040817	12.83500633167551	-0.589075393653061
O	11.732861026040817	-3.5061735083244905	-5.049492043653061
O	7.345828736040817	-5.87850469832449	-7.22599617365306
O	6.751046796040817	-9.560231468324488	-6.476826023653061
O	6.430521226040817	-9.753909468324489	-2.671898611653061
O	3.1271789260408167	-8.71425286832449	3.1357346063469387
O	5.903386056040817	-7.48392775832449	5.3480639263469385
O	7.968825926040816	-4.32349558832449	5.150906736346938
O	9.073598886040816	-1.85010022832449	7.813253876346938
O	3.4897952160408163	6.14730626167551	5.76913537634694
O	2.3744933360408167	8.23213054167551	2.771956106346939
O	-0.7240493109591833	9.10099212167551	0.7419714163469391
O	-3.7558710339591834	9.27867200167551	3.064841026346939
O	-2.2304061539591835	6.77974565167551	5.542496926346939
O	-3.3213528839591837	3.81262142167551	3.460090936346939
O	-5.4534866539591835	1.28393752267551	5.337931156346938
O	-0.6336607989591834	0.23762732167551004	5.499957536346939
O	-0.7077416219591833	-1.2384995083244899	1.9731619463469388
O	1.8126430360408168	0.24515721167551008	-0.4868854436530612
O	5.199590316040816	1.7765847076755101	-1.2112864436530613
O	7.378746916040816	3.60512799167551	-3.6628433036530614
O	7.303749616040816	7.27060585167551	-2.7854487406530613
O	7.388183616040816	8.05888428167551	0.8679293463469389
O	12.736556526040816	1.8620211206755102	0.13419795634693887
O	10.399017426040816	0.40890889167551014	2.7867164663469386
O	6.681087626040816	0.6728536516755101	3.4561013463469386
O	4.761790946040817	-2.46849971832449	2.7619433563469387
O	2.0899261860408167	-3.78402462832449	5.058566546346938
