86

O	-1.880940593818867	-0.8779280982830189	4.032131684835282
O	-1.230643843818867	0.21280540971698103	4.405395594835283
O	-0.299776687818867	0.38801760691698106	3.502857924835283
O	0.2069441421811331	-0.553137315283019	2.719436174835283
O	-0.330093207818867	-1.8096711182830192	2.615790044835283
O	-1.641022133818867	-1.856290908283019	3.106232134835283
O	0.10484407218113301	-2.5981380082830188	1.4387886748352827
O	-1.543201922818867	1.354003628716981	5.197506334835283
O	-2.533013815818867	1.5196717817169811	5.958313364835282
O	-0.6834748578188672	2.456412881716981	5.379414004835283
O	-0.540212157818867	-2.203283018283019	0.21458455383528283
O	-1.5825893008188672	-3.0170656782830187	-0.2780418611647172
O	-2.1955667706188673	-2.612777088283019	-1.5826663151647173
O	-1.947779023818867	-4.0255466682830185	0.3660964758352828
O	-1.765375908818867	-3.6287309682830187	-2.600425295164717
O	-2.967545194818867	-3.8189033382830186	-3.483394985164717
O	-4.102242097818867	-3.7003367082830185	-2.504424785164717
O	-3.633129677818867	-2.831129778283019	-1.4251488851647172
O	-4.571839947818868	-2.038487408283019	-0.6741118511647172
O	-5.919690867818867	-2.551400488283019	-0.4018433691647172
O	-4.030191427818867	-1.389780308283019	0.2810236588352828
O	-6.365518077818867	-2.360812808283019	0.9779797648352829
O	-6.3947586278188675	-3.704665518283019	1.5555110748352827
O	-6.105456347818867	-3.6846246382830192	3.025054884835283
O	-7.140835307818867	-3.6814835482830186	3.761653984835283
O	-5.099194937818867	-4.562941178283019	3.4440863048352828
O	-7.038390777818867	-2.135771018283019	-1.2756725751647173
O	-6.798699977818867	-1.077778378283019	-2.301984005164717
O	-8.113522487818866	-0.29464360028301895	-2.420804575164717
O	-8.060362327818867	0.7714471507169811	-3.473956105164717
O	-8.024677307818866	0.055236775716981046	-4.819740595164718
O	-6.797421877818867	-0.8111596282830189	-4.794463705164717
O	-6.760099857818867	-1.7842273082830191	-3.653337345164717
O	8.170067962181133	-5.216351908283018	-0.10164818046471714
O	10.212353962181133	-2.174703858283019	0.7272734688352829
O	5.6869002521811325	0.665130127716981	-5.783103135164717
O	4.314862792181133	-0.7654056282830191	-9.018049065164716
O	1.972443242181133	-2.960354578283019	-6.956594945164717
O	5.021588382181133	-4.678593998283018	-5.407336175164717
O	5.798572882181133	-6.11290551828302	-8.829697375164717
O	2.509746052181133	-6.157526278283019	-10.751152065164717
O	-1.021899757818867	-6.775297378283019	-9.555237865164717
O	-6.145125567818868	-9.392199708283018	-9.590648165164717
O	-3.9278469978188673	-11.430561168283019	-7.325115715164717
O	-1.8882246078188671	-12.99150666828302	-10.123657865164716
O	1.158741892181133	-10.972134068283019	-9.132903365164717
O	-4.137227157818867	-1.317240868283019	-10.986631365164717
O	-9.228197437818867	1.0610740217169812	-10.076689815164716
O	-7.2470281678188675	2.954319841716981	-7.506358375164718
O	-3.5151946078188674	2.271525531716981	-7.875444125164718
O	-2.980630602818867	5.651969511716981	-9.532838495164716
O	0.7001304121811329	6.157133421716981	-10.470085365164717
O	1.8741115621811328	3.364274111716981	-8.160234705164717
O	9.976137662181134	-0.802851718283019	6.831425824835282
O	10.045454562181131	-4.428902298283019	7.961942714835282
O	6.310574412181134	-4.897816348283019	7.581865084835282
O	3.8393384321811332	-6.19775642828302	10.117120634835283
O	-3.040817487818867	-5.37189881828302	11.209386434835283
O	-3.9087028578188674	-8.772852428283018	12.497921134835284
O	-11.617103567818866	5.105602691716982	-3.392653995164717
O	-1.361251211818867	10.386314311716982	-4.181360305164717
O	-1.216789426818867	12.003695531716982	-0.7824255851647172
O	-2.243730368018867	10.659793931716981	2.610524404835283
O	-0.534859087818867	10.807247031716981	6.002072034835282
O	-1.3388005918188672	9.770225021716982	9.553977394835284
O	0.9059519421811331	3.5634128817169812	9.983341934835284
O	2.5477528821811326	1.4352666187169811	7.3711090748352825
O	1.215198592181133	-2.127171878283019	7.044418804835282
O	1.6921039821811328	-5.335327508283019	4.986812324835283
O	5.350113682181133	-5.68647173828302	4.063953574835282
O	6.004033652181133	-1.913715458283019	4.155353014835282
O	4.564299982181133	-1.451713958283019	0.6720632698352829
O	6.996675872181133	0.24727512071698105	-1.7431158251647172
O	4.007764362181133	3.428778421716981	0.5810390428352828
O	1.1195681521811327	2.615830171716981	-1.7806968751647172
O	-2.094495280218867	1.554807261716981	-0.08766219113471715
O	-4.541049437818867	1.798135801716981	2.789435674835283
O	-7.484085897818867	0.11256966871698104	4.446389434835282
O	-6.320037347818867	-2.0560708882830188	7.2646601448352826
O	-3.423737917818867	-0.6144292882830189	9.278629614835284
O	-7.318539357818867	2.215626251716981	11.904609334835284
O	-8.193838957818867	5.9106741517169805	7.991069814835282
O	-4.9139885278188675	7.227524501716982	6.519385604835283
O	-2.027742669818867	5.62508596171698	4.662639654835282
O	-1.797230136818867	6.59325793171698	1.0288613248352827
O	1.4736874721811328	7.4152105517169815	-0.6859398371647171
