36

O	20.428738989333464	-15.205068849467665	24.56616949256373
O	19.129894720206522	-14.63634206901542	24.46904691955118
O	21.217151316873323	-15.191444083063526	25.652885404607286
O	20.7086406456327	-15.897546324424468	23.363504079909333
O	17.731464048836614	-15.503884081483534	23.911308408299842
O	19.207317798683427	-13.39150440847732	25.096514943879036
O	21.02416850067042	-14.160534158809162	26.521487032210693
O	22.424282590429684	-15.828049099917859	25.613939952072492
O	21.982842664156642	-16.45901267558594	23.371538295516093
O	16.39836630313477	-14.9475715223189	23.002065520327395
O	18.27750103771846	-16.621250445839014	23.04686491473422
O	17.1497681046339	-16.20196446440455	25.09532829271337
O	20.04498038265259	-13.242106243573705	26.14015647647146
O	22.8688666507622	-16.247268366867438	24.391793297588784
O	16.30577750914926	-14.65044402931381	21.56872959560139
O	16.04352903508763	-13.304380802914281	21.014404734173393
O	17.29087818571002	-15.343286880657711	20.80356143478121
O	16.830713590602137	-12.525963604369462	20.222460135528085
O	14.815513201935136	-13.307812786625703	20.792900278370077
O	18.13493860936924	-14.547616047720656	19.97048908244122
O	18.27160474377566	-13.228530836297814	20.306017716771326
O	17.592593829510808	-11.347752774550594	20.55628600035805
O	19.51872370345066	-12.882028076869931	21.089232910202398
O	17.72632258877708	-11.568482640446032	22.09787918586645
O	16.27225583435867	-11.031179390648662	22.131297996779132
O	17.425374213352704	-12.582854743448225	22.63274995458891
O	15.41610201932065	-10.488796301361731	21.112854752449834
O	13.999554585236195	-10.418989220877497	21.29920752187517
O	12.993792763715845	-11.367893190577732	21.100564873507356
O	13.38352635769757	-9.312713439753072	21.74073065846507
O	12.373238861254048	-11.712441969793325	22.300493467342662
O	12.458124726592846	-9.453231551668303	22.731161459281054
O	11.978079513732407	-10.679980497683939	23.08927924636078
O	10.874702391762746	-10.633753284220678	23.994519412638667
O	10.449658672456978	-11.689744499653408	24.524430755321553
O	10.165819174821609	-9.520634341638296	24.452669125747345
