42

O	11.58826477936369	-7.793287859361101	24.329177709608715
O	22.08440241710103	-13.548676737397594	22.367734135667902
O	20.769891181477792	-12.831098314698265	22.679069549572706
O	20.36826701793821	-13.557005801033574	23.84222294794684
O	21.15132543403537	-14.157402085554343	24.897547933268598
O	22.639966604398182	-14.175972807844733	24.896922810795587
O	22.969371457535217	-13.994900844988628	23.448311370378807
O	19.774101888150653	-14.604874732850973	22.967998468754455
O	18.696161211560366	-15.164181095264853	23.642949343218554
O	18.28292084196305	-16.313587471276065	23.059563950162765
O	19.158639146410216	-17.121292324878418	22.439467421897877
O	20.49316468708591	-16.921128966710306	22.51668156961218
O	20.752631415668368	-15.555612134663168	22.535351310551132
O	18.290303412647916	-14.94033773690921	24.91999823106717
O	17.839460574535714	-15.926780600746191	25.866916982368558
O	16.570786876572903	-16.583405152654766	22.973313429618845
O	15.633936667396021	-15.141947938132752	22.70697968270967
O	16.017928665190574	-14.549639425177498	21.42689770477686
O	16.475339509361433	-13.10755891865195	21.591302313847997
O	17.126818061297662	-12.622807884193731	20.382289449586924
O	14.765851057591771	-14.29411957849209	20.548374740652
O	18.45795545923647	-13.261331052270329	20.26157009472897
O	17.915486780041327	-14.691957576595648	20.000030218858836
O	17.004120511709292	-14.348170968641849	18.810145766525235
O	16.6842352165125	-12.892294588821022	18.993235659962576
O	18.957487218184855	-15.449046804309713	19.4328534674299
O	19.159233060297797	-16.831543638495507	19.59291608921343
O	20.213581181247875	-14.887723136641345	19.78964228479306
O	14.042534772287112	-13.350127054945093	21.31775658303852
O	13.51932100887629	-12.0867907329138	21.056752828335824
O	12.792401324863445	-11.215501371234446	21.989465980580956
O	12.740456432918808	-9.485023047457865	21.906645579465735
O	11.847650197045311	-9.196300082293794	23.354120339932805
O	11.209102094629154	-10.38950620579974	23.463943877600517
O	11.799245043219951	-11.465319406939798	22.887136827747796
O	16.378494590941685	-17.37603809177687	21.69755348051084
O	16.093012356484003	-17.48471306028263	24.032217815072368
O	20.80894364984266	-15.408836590950624	24.878284224683483
O	16.860048168217656	-12.659370254776775	22.686520830659802
O	14.144277457947798	-11.522843562594302	20.13971316286019
O	18.282584887474005	-15.489862720200748	27.085233802719152
O	18.511303051588065	-17.134848459359688	25.66539884978829
