84

O	1.2571429363137252	-4.286108620529411	-0.5554178234274505
O	0.12546310731372512	-3.796502290529412	-1.1282473504274506
O	2.582068242313725	-4.490117900529412	-1.2969772924274505
O	1.8271730123137253	-7.462364610529412	-0.10946090342745052
O	2.306073862313725	-5.7695749005294115	-2.1495365754274505
O	0.9544937833137251	-6.398750020529412	-1.7063494167274507
O	0.758398192013725	-6.468179720529412	-0.2950889634274505
O	1.377730095313725	-5.579380790529412	0.7123346465725495
O	2.8065983823137253	-5.284922540529412	0.017368946572549504
O	4.402938752313725	-2.659751320529412	-2.764885723427451
O	4.105241802313725	-3.3716018805294117	-3.8531920034274507
O	4.708210822313725	-4.461801610529412	-3.9010928634274507
O	2.755314672313725	-3.196284730529412	-4.131499273427451
O	2.252065952313725	-2.346627940529412	-3.3239102034274506
O	3.258473522313725	-1.9706132605294118	-2.4889871304274505
O	3.5209982923137253	-0.7368160305294118	-2.3437844794274505
O	2.150060712313725	-4.1340435505294115	-5.077538313427451
O	0.7200437839137251	-4.276612680529412	-4.73229671342745
O	0.33504623131372513	-2.962052430529412	-4.5345482734274505
O	0.7977487118137251	-2.4166135505294117	-3.1874470734274505
O	0.5090591013137251	-3.642666660529412	-2.436638628427451
O	0.018935022313725125	-4.722192070529412	-2.8989832434274505
O	5.245064782313725	-2.9684606905294117	-1.6632907948274507
O	5.841032012313725	-4.323878960529412	-1.6170342286074506
O	7.4604487523137255	-3.764090080529412	-1.8563078564274507
O	8.352555042313725	-3.8230254805294117	-0.6806806204274506
O	7.9940694723137256	-4.711418450529412	-2.873323363427451
O	7.557570542313726	-2.2034376105294116	-2.5769229104274505
O	7.415882102313725	-0.9851544205294117	-1.9215432064274505
O	6.809815542313725	0.13742567047058826	-2.4477565374274506
O	6.688926732313726	0.21094966447058824	-3.8050740434274504
O	6.510289552313726	-0.9816260975294118	-4.446924193427451
O	7.102842482313725	-2.093939730529412	-3.8909725434274507
O	-9.588656827686275	-5.3553092605294115	-2.7681317534274505
O	-11.278121827686276	-3.9775539105294118	0.2914364265725493
O	-6.489035787686275	2.5303233994705883	-1.9328938154274506
O	-5.359277437686274	4.148664099470588	-5.1748501534274505
O	-3.283264137686275	1.0809945694705883	-5.880932643427451
O	-6.5369430376862745	-0.9865282145294118	-5.952282463427451
O	-7.479920947686274	0.8597478394705883	-9.10618052342745
O	-4.267063047686275	2.181463699470588	-10.65753065342745
O	-0.8103878376862749	0.6927317884705883	-10.79557657342745
O	0.966917107313725	1.058290109470588	-14.15201908342745
O	3.992051542313725	-1.1590131885294117	-13.378183483427451
O	1.706185723313725	-4.147574020529412	-13.173273483427451
O	-0.590239527686275	9.384929279470589	-5.72667985342745
O	3.1008585123137253	8.403328239470587	-6.097225983427451
O	2.9001965323137253	5.036401449470588	-7.703931193427451
O	6.454586192313725	5.134073939470588	-8.95735509342745
O	8.240739192313725	5.210254799470588	-5.667821403427451
O	6.522224432313725	4.632185699470588	-2.4093912814274505
O	2.7794101823137254	4.6341327994705885	-2.8741510034274507
O	2.561558942313725	8.021575539470588	-1.1866844754274506
O	-1.0566057676862748	9.325198619470589	-1.0427159564274506
O	-2.4536113176862746	5.830738279470588	-1.6918493786274507
O	-7.721539187686275	-11.246198840529411	2.1863392365725494
O	12.049738172313726	-0.5784149045294118	5.83467939657255
O	11.188610172313725	2.641523309470588	1.5647262665725492
O	8.045184962313725	6.794050339470588	4.353580876572549
O	0.796283022313725	10.435043559470587	4.62882767657255
O	1.4538429053137252	6.954545359470588	5.98538073657255
O	1.460644881313725	5.357600329470588	9.39005951657255
O	2.404190922313725	1.8163345194705882	10.376424116572549
O	0.7241242283137251	-0.6363956635294118	12.74379921657255
O	-3.207614417686275	-7.378838290529412	6.535511956572551
O	-2.356670157686275	-9.509358530529411	3.5513265665725497
O	-3.2909506976862746	-9.922263120529411	-0.1721444634274505
O	-6.912102787686274	-9.091284400529412	-0.7404223284274506
O	-7.055325637686275	-6.7514635705294115	2.2715084365725495
O	-5.524194737686275	-3.882108270529412	0.23691804657254933
O	-7.809104027686274	-0.7900327265294117	0.36419639657254943
O	-4.354072927686275	-0.9254543105294117	3.88004562657255
O	-1.617339527686275	0.3417137614705883	1.5759317765725496
O	1.507655827313725	-1.6018571805294117	1.7386236165725495
O	3.820670292313725	-4.019911980529412	3.5640452665725495
O	6.7406253323137255	-6.515796740529412	3.0282011265725495
O	5.366923712313725	-10.066486340529412	3.4031578965725493
O	2.4733591123137253	-10.499083540529412	5.863441466572549
O	7.909941722313725	-5.644561790529412	9.62452121657255
O	4.745269382313725	-3.521863490529412	9.946543416572549
O	1.727463614313725	-2.912492430529412	7.75106542657255
O	1.6247629533137251	0.5497592704705883	6.277124906572549
O	-1.5551759276862747	2.4858032594705883	6.021476676572549
O	-2.6668020376862747	5.578436859470588	4.25333375657255
