30

O	16.86553172278964	-15.742336666988058	23.218326364943543
O	18.083641411782587	-14.937072622296785	23.32940902547446
O	18.363192834952113	-11.910308491239515	20.882158071358106
O	14.917142579725857	-10.61467504749572	19.55132406604247
O	17.795352670275285	-13.607884320115913	22.704866849379837
O	16.644607425540563	-13.137506911412387	22.95619718944421
O	18.42585535212992	-14.818865161940241	24.787849786759228
O	19.51987252356822	-11.85475478410252	19.89068727083682
O	13.800786514616643	-9.990550610753104	20.377124805257466
O	19.789166319251784	-14.324800121074345	25.052492483923913
O	20.21728989139691	-13.142505450954738	20.07001147635065
O	13.232868805347785	-11.00197781468664	21.35178145338757
O	19.76161614492053	-13.761317531635687	21.134318387874558
O	19.92056756882495	-13.287297206668011	25.969218468281543
O	20.873665255604177	-14.51290618889899	24.23830498862965
O	12.241915773153089	-10.302652177552448	22.24939286658244
O	21.156824404267397	-12.84232100398915	26.389188450514062
O	22.050579742929195	-13.790363556208527	24.41536814591958
O	11.689857744202468	-11.274783813603968	23.157216104189608
O	22.267518330404812	-13.111817875290335	25.6078629902921
O	10.997963434007094	-10.951406557795163	24.184509031369007
O	10.191512606520435	-11.86878805980797	24.89284715662838
O	10.453371196336544	-9.65421655050389	24.304352554054347
O	17.04304373046253	-11.855870987860536	20.177982203206074
O	18.541122271490494	-13.166334084979358	21.59075341396017
O	16.623190287079893	-12.887086804482816	19.571181941867888
O	14.994976178995174	-9.871345415196819	18.271989073402892
O	16.150478989877005	-10.767605125756283	20.272696000133728
O	13.958885939512074	-10.191347888769158	17.416226054694395
O	16.274792187086888	-9.92917720888349	17.499080987463373
