33

O	20.13503692819823	-13.213063575336342	25.372152714575453
O	21.407019420498266	-13.456760255016153	25.888069650746942
O	22.136984855611757	-14.470024618628742	25.325650064688773
O	21.76478183189915	-14.934088569269758	24.082292160714953
O	20.621999435975063	-14.421723839856957	23.52881633453984
O	19.649750252424674	-13.747213795549131	24.217347172842583
O	18.161699884147133	-13.91438842024964	24.21613816387546
O	17.65335235764422	-14.375115185334334	22.85303654603806
O	18.78843363720622	-15.207752627036555	22.428225382841173
O	18.572574701264816	-16.78028337988371	23.0518754756394
O	19.800174522434595	-17.500685311006166	23.496532508241614
O	18.043638751150926	-17.57066802425074	21.87772483177369
O	17.463456024215375	-16.693636745574366	24.41553187085616
O	17.76580180686217	-12.9784057755185	22.398266145631418
O	17.244107643433658	-11.992353262852241	23.01623262223268
O	18.90987374737184	-12.63946885317061	21.638361057440104
O	19.426965692510628	-13.593102109421062	20.62936851745455
O	20.5165918711022	-12.721791008709955	20.078692270773793
O	19.640618897519133	-11.541051945340492	19.666914247036942
O	18.67538110536204	-11.441764385466392	20.779400863477427
O	17.328889513625164	-11.77017348572709	20.17359974587559
O	17.28451671395527	-12.957505163772424	19.730272787438988
O	16.576519717724643	-10.732346910917821	19.637014544747274
O	15.529571241569736	-11.202507189377775	18.719889584289426
O	14.522532070120839	-11.832238631747796	19.59237630013708
O	14.643345725592685	-13.225451324001998	20.00859291084904
O	14.692879665849286	-13.5252723252383	21.44692751009618
O	14.190012603131551	-12.572719781472534	22.375347072325553
O	14.430735101828926	-11.185883679010423	21.895512499927737
O	14.073856687968526	-10.807656844553795	20.54853686510047
O	12.739998582354769	-12.457513814116432	22.424513609725217
O	12.174852019067416	-13.529669972062912	22.063338773357216
O	11.988382203984768	-11.629498300335099	23.281754724516002
