32

O	11.783795853314409	-7.123765727715909	23.968751380638924
O	14.325761986260776	-14.334880409909536	20.005678111611964
O	12.109985409945669	-8.705600366316098	23.318086106493517
O	11.880737271944822	-9.880910921030067	24.023295594121723
O	11.631579145412408	-10.989924034291453	23.269632201689237
O	12.01295312677933	-11.003351280397997	21.93387146868957
O	13.115519939796437	-10.22770711853828	21.710353021303042
O	12.971998203180787	-8.94694317951093	22.245376471885436
O	13.954713027734774	-10.46270338976216	20.485788539460952
O	15.298101249559807	-10.836311193082267	20.7592999226332
O	14.987476573424155	-14.113717009738664	21.594040273976884
O	16.151869683199987	-11.613283663148598	19.957379826410083
O	18.359299712270293	-12.202990623747503	19.22298848037546
O	18.89923331049813	-13.571268583796332	19.23943890522514
O	17.953950140487656	-14.262836611437798	19.826774355063097
O	17.26539519367161	-13.477818977111323	20.83334212815172
O	17.450727299497583	-12.123836703486699	20.41438303930228
O	17.161175722461746	-13.746167577313514	22.25371339120108
O	17.2446608262743	-15.261245010634507	22.38317735158946
O	15.80720955243918	-15.546067823865464	22.35254358952001
O	12.000614612539064	-12.224804423741888	21.116566205894262
O	11.744595257021327	-13.308846944500269	22.018735490170016
O	16.340996254010193	-12.957396490152238	22.840244812284215
O	15.655576763470954	-12.182736189559183	18.984022681357608
O	17.830651282476065	-15.45092223932035	23.754747327370886
O	18.99030151370856	-14.447930838010024	23.83647238944958
O	15.022936610848905	-16.577293606722826	20.461600980228408
O	14.911396630753607	-17.9341953496873	20.73871827625848
O	13.665810026682104	-18.235230384659715	21.2991438176369
O	12.651090244664095	-17.630011027432786	20.558050344232704
O	12.792908355751079	-16.36603608324985	19.99163897260021
O	13.944180937841068	-15.71142739973442	20.151330034235034
