82

O	-3.3822783012545456	-0.7275942289636363	2.503707071276364
O	-0.31699794125454583	7.327155581036363	0.07727498527636384
O	-2.0518514612545458	7.003773581036365	-1.5447039487236363
O	-1.2817283242545459	4.528115311036364	-0.8580732217236362
O	-0.6390594712545458	6.745392611036364	-1.270685056723636
O	0.5954142087454543	4.757716751036364	-2.2241848787236362
O	-1.0971168272545457	3.144333451036364	-3.736818128723636
O	-0.37198371225454574	5.274279821036364	-1.331554369723636
O	-0.8045637992545458	1.432026339036364	-2.200937008723636
O	1.4503806387454543	5.504234081036364	-3.143122178723636
O	2.6225122787454542	4.616237151036364	-3.456954158723636
O	2.0140655687454543	3.244779271036364	-3.3555771687236358
O	0.8456598587454541	3.3318340110363636	-2.416235228723636
O	-0.35129155025454584	2.6077740570363637	-2.886543058723636
O	-2.095514001254546	0.8397493210363638	-2.405084378723636
O	-2.992161851254546	0.7928903310363637	-1.2401179887236362
O	-2.929775241254546	0.027984881036363873	-0.10715802772363614
O	-3.7819293912545455	0.09757314103636383	0.9967655912763638
O	-4.843772291254546	0.9414066410363637	0.8950513712763639
O	-4.870037031254546	1.799795382036364	-0.17051494572363612
O	-4.183210301254546	1.502894684036364	-1.338773250723636
O	1.1042992887454544	7.210887891036364	0.4531771662763639
O	2.1594529287454542	7.370149551036365	-0.4159221961236361
O	3.447644718745454	7.601748751036364	0.06264838027636382
O	3.7172535587454543	7.633354641036364	1.4053322412763638
O	2.7495973687454542	7.094243651036363	2.243662291276364
O	1.5063472687454542	6.8431389010363635	1.7317545612763638
O	0.7990274387454542	-6.157108478963636	-7.4690233787236355
O	0.20291585874545415	-8.945904308963636	-5.0249202087236355
O	6.020264948745454	-4.420520748963636	-0.943866576723636
O	9.086939748745454	-2.3801530289636363	-1.8823893487236363
O	6.7840832387454535	0.13626427103636374	-3.548676548723636
O	5.630734488745454	-2.554018718963636	-5.990674368723636
O	9.149802048745453	-2.550609168963636	-7.432471448723636
O	10.616980748745453	0.8720262610363638	-6.629961098723636
O	8.957621348745453	4.267137121036364	-6.453496088723636
O	8.373888518745455	9.823475081036364	-7.801294048723636
O	6.4280370787454535	7.887980891036364	-10.387572268723638
O	9.487456748745453	6.642560561036364	-12.260831858723638
O	8.887540388745453	3.0973232210363637	-11.063826358723636
O	9.944836648745454	6.138288561036363	-0.3805733933236361
O	8.439912478745454	10.355584891036365	3.114641881276364
O	6.0977326587454534	7.693786051036364	4.377005971276364
O	6.912982778745454	4.302796371036363	2.841901741276364
O	8.599433858745455	3.1885205610363636	6.066596421276364
O	9.996279648745453	-0.3630491989636364	5.741363201276364
O	7.878621628745455	-1.1175810989636363	2.665548911276364
O	-6.383164871254546	-9.431931808963636	3.074833581276364
O	-6.5800077812545466	-11.023450108963635	-0.3871290413236361
O	-5.9074833312545465	-9.764648708963636	-3.882257538723636
O	-6.984189261254546	-9.108451708963635	-7.466131488723636
O	-7.073614021254546	-5.348052908963636	-7.035420198723636
O	-9.890299861254546	-2.964802168963636	-7.826558168723636
O	-11.826826351254546	3.3785819110363637	-5.503020428723636
O	1.4310600787454542	10.928139771036363	7.238102781276364
O	7.081151978745455	-0.6958523189636363	11.124487841276363
O	3.443068138745454	-0.14989153896363616	10.083984341276363
O	0.07835868874545426	-1.077310478963636	11.496563141276363
O	-3.4023154212545457	-0.15953709896363621	10.285115841276363
O	-6.5559138112545465	-2.2459499389636366	9.897155641276363
O	-10.156215501254547	-1.632156048963636	8.879091881276363
O	-7.384891891254546	-3.154231748963636	-0.007698639723636103
O	-7.188850021254546	-1.0099964389636362	-3.150544168723636
O	-5.0750227112545465	-0.4887420989636362	-6.307010498723636
O	-3.6926522212545456	-3.831581648963636	-7.443242268723636
O	-3.739508991254546	-5.351341898963636	-3.929704328723636
O	-0.4595900942545458	-3.682297248963636	-3.005685328723636
O	2.2147133387454545	-6.126487948963636	-1.8094145687236363
O	-0.5044275122545459	-4.277295738963636	1.890531341276364
O	1.4391353087454544	-0.986780748963636	1.8514835112763637
O	-0.5958106402545458	2.1801283280363637	1.5077173512763637
O	-3.7639802012545456	4.141070211036364	2.139559971276364
O	-5.746389271254546	7.220321261036364	1.174819701276364
O	-8.345763721254546	6.219900381036364	-1.3617306887236362
O	-9.962774001254546	2.850067290036364	-0.6878552127236361
O	-13.141688651254546	5.6177338410363635	2.832023131276364
O	-9.412393221254547	6.063675371036364	6.790554731276364
O	-7.566691151254546	2.756910968036364	7.367278741276364
O	-5.339397651254546	0.5681348010363638	5.247359591276364
O	-1.7226802492545459	0.5528114210363637	6.307595701276364
O	0.3718941187454542	-2.596195658963636	6.396293001276364
O	4.048068458745454	-3.2872886289636365	6.681369611276364
