30

O	16.940086551468134	-15.619388418719078	23.241882916497424
O	18.155738638632407	-14.809455632980812	23.209506385001852
O	18.23197139193012	-11.826067960371821	20.80387971591692
O	14.86795297923645	-10.420872916582088	19.563626090723535
O	17.783096674713143	-13.505762633660972	22.623115930215715
O	16.675846958511713	-13.021215087647695	22.933846684518745
O	18.641493510589868	-14.693705553597582	24.627120948236982
O	19.273926894704285	-11.674222709222338	19.733283817887294
O	13.820648321830047	-9.901100798857376	20.501269166353502
O	19.90059132426955	-13.938886469164947	24.76171796499676
O	20.382726416664404	-12.648131434387999	20.103709513403885
O	13.408721593717933	-10.9901194377085	21.450470489898343
O	19.582712793817006	-13.747620423769881	20.77200507163416
O	19.99304112866182	-12.991015315338544	25.745142596915503
O	20.930082428392968	-13.946679924727052	23.860405910228963
O	12.2988944280539	-10.388051638073625	22.306585609392716
O	21.18926684933477	-12.367418864338115	26.078096496745744
O	22.147614505981466	-13.354654544226042	24.18125138576643
O	11.811286395011743	-11.451116172639846	23.145759410397975
O	22.339358768986948	-12.722397935118298	25.403080959985992
O	11.15014158149538	-11.125751378580519	24.190137040787647
O	10.338471387329982	-12.033315095541935	24.895128978745717
O	10.724437086009353	-9.80866058315222	24.44435637728627
O	16.870548960704124	-11.812136829222752	20.235571406382192
O	18.48914764706188	-13.07665914113295	21.46991622289964
O	16.40650554471104	-12.805413716211094	19.617449978773504
O	14.90092650964514	-9.621740871980792	18.329814386934924
O	16.10808098140215	-10.625633910793985	20.244789108315054
O	13.757604445561057	-9.56640182289989	17.578675589917168
O	16.106121712811476	-9.527848770633295	17.471366497287356
