27

O	16.88642865677482	-13.440830327944614	17.924086380177798
O	11.143571665534221	-12.53915863375838	24.19867666424972
O	11.698491109334164	-11.31291968673124	23.626254414249775
O	11.21903937695952	-10.260606916360247	24.404794577701402
O	12.553538269136965	-11.331319928662964	22.67646786221181
O	13.724353818394693	-11.64837808622072	22.00461380147906
O	13.852509484462725	-12.148100771298024	20.71167868498414
O	14.521809437906413	-13.411544878297024	20.362345320861497
O	15.242661769568567	-14.359519920503223	21.377058536302847
O	15.703875405453976	-13.352487550004872	22.290647144809185
O	16.641022732961776	-12.519653802121608	21.587901956484583
O	16.663889012742192	-12.260920271723164	20.23735860963153
O	17.701846223750778	-12.846941566330003	19.44191152100019
O	18.63283461495935	-13.711571006140977	20.05783652822937
O	18.608570101538906	-13.975093554246065	21.432719436500665
O	17.8449067963055	-13.000943476868084	22.123941767190928
O	18.773387105741786	-15.214805661471885	22.150658109668324
O	17.92494643655578	-16.167038157475314	22.102939928058493
O	19.150347929105557	-14.83648696189373	23.492115626075073
O	19.735178966066627	-15.878681946202013	24.129501424642438
O	19.626886116689878	-15.598373752709314	25.563897093279344
O	18.434716100134526	-15.248358749387323	26.06971418563242
O	19.866440998355355	-13.595699612381907	23.595966768982276
O	20.959580445964306	-13.626501421152623	24.67504280806528
O	21.832417441005155	-14.758223658219848	24.109979950378364
O	21.37422221508605	-15.014751097990558	22.705457672211924
O	20.820001825023837	-13.61722493672955	22.38773809866772
