37

O	12.495079686286092	-7.692818094822231	22.384235554532836
O	12.577982344409065	-9.432202135233856	22.341620618759485
O	13.580129778823299	-10.102141377862234	21.6895948990052
O	13.620588446977374	-11.451077847622717	21.73743181209555
O	12.428150542525794	-12.190811377518797	21.534389216310878
O	11.687919926087925	-11.580874392787326	22.607888875111275
O	11.635780816956743	-10.252276380255667	22.884530835642124
O	12.891364370206311	-13.840394262744153	21.980633904724947
O	14.392757177585576	-14.140175533468579	22.790184028632844
O	15.647888756678032	-13.656610632451475	22.12525655226281
O	16.590551171069723	-14.19269001043056	22.73225872892249
O	15.463143217840143	-13.931061305700752	20.772827965181076
O	16.55675983472469	-13.744334583268191	19.86033258854398
O	15.985867594127535	-14.03087130290085	18.548328251406687
O	15.367732188172777	-15.359010690532532	18.88897254016415
O	14.15958721236919	-15.850179459755555	18.53469097703295
O	13.288115421669765	-15.697943240459617	19.635726201332567
O	13.707414466953452	-16.45799074861143	20.642991864862385
O	15.088824832114415	-16.671279821573492	20.773063291484736
O	15.888022798504842	-16.332975395784	19.665675773716696
O	13.108464820352612	-17.06869351347542	21.757485692557
O	13.513839306056765	-18.172807502557436	22.321562641009223
O	12.899607363402419	-19.363843518275758	21.88645321604081
O	14.954629350476825	-18.309218810063108	22.37028401071121
O	16.89630549076876	-12.32925304619134	19.959614109573028
O	15.916712648616185	-11.70760684117257	19.550062540060434
O	16.83045257973182	-11.812946860673726	21.323139603797852
O	18.096242894993978	-11.201796021497966	21.508655834156308
O	18.880051007937908	-12.467587583169268	21.994966354344438
O	18.92757455946749	-13.273538102536445	20.878265074749052
O	19.55629844723139	-14.430792505664915	21.176733158874843
O	19.042679880784156	-15.732444996501496	20.67044907954028
O	18.059508056486443	-16.078329892127837	21.579480099185254
O	18.0801500006899	-17.379768528578275	21.99519114441716
O	18.239359729748063	-18.338218110080142	20.8573979375029
O	17.27911995083251	-19.041715704029333	20.410281855799248
O	19.13778795628746	-17.880183363684743	19.82811141912487
