28

O	19.44238202276753	-15.061005846036336	23.787469742780416
O	18.86255238049758	-13.07148295983082	21.46235274416805
O	17.05809211706548	-14.419465539044994	21.79853233143235
O	18.294798589361406	-14.102939186084871	23.74935437619099
O	16.164058288719055	-10.790496610971335	20.28672990116368
O	16.559619185228136	-12.94964913192896	19.673394488706357
O	18.024341841491136	-13.796247159266178	22.333145326075826
O	10.546601582993631	-11.881011753804213	24.30162422274668
O	19.893999420860922	-13.762291581104485	20.685719730961967
O	10.324654224634836	-9.764228370429343	24.46747793989587
O	20.543982243161956	-12.606081961215187	19.98312769983154
O	19.360855811670753	-11.765109210879576	19.59323099484783
O	18.4147564596272	-11.89808002798851	20.752709488635205
O	16.990899674734365	-11.960746451506484	20.340750054845515
O	14.877155431193462	-10.75178928809094	19.642932330843443
O	13.84098495342312	-10.777241765465751	20.685627394861324
O	13.400550459028677	-9.70597977851964	21.389815649063483
O	12.481473525250347	-9.702184522305918	22.387618975404713
O	12.014962365974995	-10.853422780537642	22.884600910069672
O	12.657219953389617	-11.915131706381166	22.352887447270316
O	13.348349066929988	-11.944485388833245	21.174070456258796
O	11.144203739379018	-10.803518997814134	24.025845177121624
O	20.659897995906764	-14.492350989609228	24.45764698710789
O	20.77675990707027	-14.373800504632293	25.83008813967522
O	21.81231700156011	-13.635846859319134	26.393823984149872
O	22.66984168424316	-12.928308281515704	25.581855464247298
O	22.481099655963853	-13.02798895591496	24.229314838815764
O	21.229491843010415	-13.413975344062145	23.777939564276043
