81

O	-2.5302043123320757	0.3438647054377365	4.53329123061132
O	-2.6154685923320757	0.9582136901377365	3.3041723806113197
O	-3.028166832332076	-1.0677561475622634	4.42823630061132
O	-4.316281432332076	-0.8776915375622636	3.88334226061132
O	-3.3832534323320758	-1.7000363875622635	5.786718970611321
O	-2.6327362423320757	-0.9700586575622634	6.86327831061132
O	-1.2844752923320757	-0.45723867756226344	6.44485681061132
O	-1.3743404503320757	0.6243922784377365	5.36587045061132
O	3.9915325576679246	2.1316280124377363	3.03384253061132
O	-5.002359652332076	2.2381691924377365	5.10040051061132
O	-5.648533302332075	1.0747842214377366	4.44259695061132
O	5.520327887667924	3.1511002824377363	4.39223827061132
O	3.2376589276679244	2.083678772437737	1.79536749361132
O	-7.059324792332076	0.7783080434377365	4.33287000061132
O	6.197022077667924	2.8309624824377364	2.2329613006113203
O	1.9541132376679244	1.3795958894377365	1.82721262961132
O	-7.223306272332076	-0.7412736575622634	4.36053122061132
O	0.1384578776679244	0.5205300084377364	3.40618873061132
O	1.5187002576679243	0.8156208341377366	3.13546262061132
O	-6.727582382332075	-1.1678968675622636	5.70593737061132
O	0.6986118976679243	1.9729360224377366	4.9328183706113204
O	1.5805674976679245	2.1612295224377363	3.7763909606113204
O	-5.3762327723320755	-0.5533819875622634	6.10545809061132
O	3.031490857667924	2.3722796724377364	4.19516730061132
O	-4.8374282123320755	-0.07518830856226344	4.82627095061132
O	5.057007967667924	3.1786006824377364	3.03143727061132
O	-0.006603252332075593	0.7434934114377365	4.79880419061132
O	3.6811163176679242	1.6673789594377366	0.59458071761132
O	-7.262544272332075	5.193981562437736	-8.30002707938868
O	-9.343044592332074	2.5920158624377363	-6.44572543938868
O	-9.552159442332076	6.661899422437736	-1.7966742093886798
O	-9.001125482332075	2.9829312424377363	-1.1354546393886797
O	-5.667232672332076	2.4359801024377363	-2.9002603093886803
O	-3.6186963923320756	2.8786329424377364	-6.02331621938868
O	-2.1317239183320758	-5.227383377562264	-4.273018189388679
O	-4.075596962332076	-8.130679687562264	-2.7987726393886803
O	-4.1662745723320755	-6.291749847562263	0.5509800216113201
O	-6.124690612332076	-3.454185427562263	-1.02217925938868
O	-9.009291252332076	-5.925721637562264	-1.60321506938868
O	-8.553579032332076	-8.627909757562263	1.04865461221132
O	-7.232781632332076	-8.389005037562264	4.59352774061132
O	-9.140457132332076	-6.003283877562264	9.60066765061132
O	-11.480229992332077	-6.254362567562264	4.62536616061132
O	-14.283984192332074	-5.994122457562263	-1.09978346938868
O	4.058773617667924	-11.273004337562263	5.7909014606113205
O	1.9101898876679244	-10.327057137562264	2.7886602406113203
O	3.848095127667924	-12.680841737562263	0.5327778876113201
O	2.4776518276679242	-12.610673737562262	-3.04913160938868
O	0.6251450376679244	-9.322142737562263	-2.4738785093886797
O	-0.9400392473320757	-9.095176227562263	-5.915782419388679
O	6.4679772776679245	5.418303592437736	-7.10220290938868
O	3.3197440776679246	7.498935912437737	-7.6170091593886795
O	0.14161798766792444	7.894211532437737	-5.62911260938868
O	-2.4605042523320755	10.059465742437737	-3.8949620593886793
O	-1.5337664523320758	8.753253102437737	-0.45492699938868
O	-0.6731196183320757	10.785619442437737	2.60154216061132
O	3.044506467667924	9.395914602437736	8.44890174061132
O	1.1387647076679244	11.474633962437737	10.94641406061132
O	8.508126407667923	6.8176893424377365	0.61158540461132
O	5.020134347667924	5.451288792437737	-0.10245729938867987
O	2.4526795076679244	5.938276182437736	2.6453817306113203
O	-1.2079120667320757	5.151712122437736	3.4475732106113197
O	-3.2494075223320755	5.561836042437736	0.24932188561132007
O	-0.3396752143320757	4.6574968424377365	-2.0511278493886795
O	-0.8369830993320757	0.9383471292377366	-1.45886523938868
O	-1.3396098083320758	-1.0468159875622636	-4.72379060938868
O	0.11109506766792432	1.6228827664377365	-6.920953179388679
O	3.5265983776679244	-2.9033445475622637	-6.4393629793886795
O	3.3827035476679246	-0.7976063975622636	-3.28124563938868
O	2.8483788876679244	-3.492411747562264	-0.62739873938868
O	4.063756727667925	-2.6723935175622633	2.8161944206113203
O	6.109445047667925	-0.6871793675622635	5.2140904306113205
O	6.675757477667925	0.2996300344377365	8.84155092061132
O	5.546997537667925	3.8724402924377364	9.17712282061132
O	6.409441277667924	6.115203002437736	6.24019826061132
O	9.770549207667923	7.6557510324377365	5.4104975306113205
O	11.315652207667924	6.514022492437736	8.71124808061132
O	9.243416907667925	0.4567619804377365	1.52246448661132
O	8.447328097667924	-3.0567375875622633	0.39391215361132004
O	7.136386307667924	-3.8849334075622637	-3.0424934693886794
O	5.623516477667924	-6.930394927562263	-4.62640726938868
