82

O	-3.54508246459322	-0.3346879038305084	1.9561842179000006
O	3.04343474540678	3.3257889261694915	0.4810736729000006
O	3.18800549540678	4.637221696169492	1.0463071469000005
O	4.13202270540678	3.2219661761694915	-0.5328219840999994
O	4.91992349540678	4.483817846169492	-0.5974181550999994
O	4.18384915540678	5.383628056169492	0.3270989149000006
O	3.0010585454067797	2.2455256641694916	1.4827439579000006
O	2.26508426540678	7.961068966169492	1.8119159979000006
O	1.4786625654067798	7.626077646169492	0.5839585289000006
O	0.13580474540677973	8.218778746169491	0.8391896109000007
O	2.22499309540678	5.411016956169492	1.7492527979000005
O	2.54539552540678	6.634932746169492	2.5140041579000005
O	1.9931035054067798	8.149832386169491	-0.7065830900999994
O	3.8129585054067796	2.2008474911694913	2.4271576079000003
O	2.12289585540678	1.1518713421694915	1.2953162679000005
O	1.7871539754067796	0.1834445561694915	2.3026175179000004
O	0.4477493234067798	0.07278770616949148	2.8870599379000006
O	0.2195005464067798	0.3729756461694915	4.226855977900001
O	-1.0617445415932203	0.8294202561694916	4.5420844079
O	-2.21249150459322	0.1969869861694915	4.0756043979
O	-2.00532332459322	-0.5246068938305086	2.9004132579000004
O	-0.7298079355932202	-0.41503359383050853	2.3301325879000006
O	1.0504124754067796	4.9988321961694915	1.7283922879000007
O	6.92208671540678	-6.4287031938305095	-1.3830979420999994
O	4.1866334454067795	-8.855650693830508	-2.2005897420999996
O	2.05798768540678	-2.3004692538305083	-7.052404292099999
O	3.89150113540678	0.3724292561694915	-9.0350078721
O	5.13121886540678	1.8383445421694915	-5.7101453521
O	6.9851982954067795	-1.4357547438305085	-5.0492901220999995
O	9.22892108540678	-0.6413199538305085	-7.989440222099999
O	9.10986236540678	3.123887376169492	-8.458202202099999
O	8.85704111540678	5.877946906169491	-5.897937092099999
O	10.55253038540678	10.732915996169492	-3.3843629720999995
O	12.40502588540678	7.921928196169491	-1.6713138020999994
O	14.86141028540678	7.3031251161694914	-4.5218787120999995
O	13.20216218540678	3.9885204261694915	-5.300895222099999
O	3.39393651540678	8.893790066169492	-7.4602642621
O	0.007808515406779792	13.00250240616949	-5.4746072021
O	-2.02237971459322	10.020605636169492	-4.4193593521
O	-0.6306761015932202	6.799964346169492	-5.9144747320999995
O	-3.43464190459322	6.715067756169491	-8.4744951321
O	-3.06526914459322	3.7282204661694918	-10.8459222421
O	-0.6865028525932202	1.9245613881694916	-8.4795085821
O	-5.28979221459322	-9.94743639383051	2.0344419279000006
O	-2.12371629459322	-12.025174893830508	2.4705787779000006
O	1.5167087554067797	-11.166856193830508	2.9689035479000006
O	4.76683409540678	-11.416155793830509	4.9105809879
O	4.65824357540678	-7.813915743830508	6.0722159079
O	4.96601458540678	-6.500730673830509	9.5969228979
O	2.77209993540678	-0.7264425938305084	12.9614878579
O	5.58242021540678	-0.3538202738305085	15.436810857900001
O	-5.92598925459322	12.17217620616949	0.1962756673000006
O	-9.01840475459322	3.3979392561694914	-9.4132194721
O	-8.88163035459322	2.718562606169492	-5.652256672099999
O	-11.17084391459322	1.0880957591694915	-3.1249173720999996
O	-10.76227271459322	0.7611843961694915	0.6571026559000006
O	-11.32619521459322	-2.1498752838305086	3.0316623679000005
O	-11.17024051459322	-2.7322400938305083	6.7758684979
O	-4.89695838459322	-4.463685443830508	7.9866559379
O	-1.9874882445932203	-4.7666441738305085	5.6277749179
O	1.2931654754067796	-3.095553373830508	6.7086675679
O	5.02846713540678	-2.5576028138305085	5.6131635779
O	6.00756205540678	-5.481997123830508	3.4865651779
O	2.4608462654067798	-6.353111373830508	2.3517439279000003
O	2.50154060540678	-3.717994583830509	-0.3560539540999994
O	1.8141149054067796	-5.106797783830508	-3.8473091921
O	0.22962075640677976	-8.31682211383051	-2.6406533720999996
O	-3.5821145945932202	-4.749741813830509	-4.9740911621
O	-2.28539028459322	-3.6221773438305083	-1.6050313320999994
O	-1.4946725945932202	0.07360950616949147	-2.3251553020999998
O	-1.3311861125932203	2.6378269261694918	0.4784670639000006
O	-2.61923113459322	3.568150876169492	4.0060041779
O	-1.8707967245932202	5.716184576169491	7.052742767900001
O	-0.14939648159322022	3.6547890761694917	9.7251654879
O	-1.4664248945932201	0.11083601616949146	9.9916906679
O	-5.43070504459322	2.3731657241694917	13.052758757900001
O	-8.30074097459322	4.443355856169491	8.9029507079
O	-8.68922300459322	1.9196500751694916	6.0435546879
O	-6.29211508459322	0.16716309616949165	3.7267621979000003
O	-6.4710155845932205	1.3508226141694917	0.1278539404000006
O	-6.29875091459322	-1.0510608638305086	-2.8229451220999997
O	-5.71619783459322	-0.6195878638305086	-6.5105435121
