40

O	17.125516498628503	-15.293998877041044	21.658216903893408
O	17.391188271672995	-17.508314718842634	20.752459205755727
O	16.89625184850392	-14.042815337995727	22.09740570039727
O	16.640010797211563	-11.33384551783995	19.439879225477586
O	14.817391510428543	-14.527798201935727	19.496376417600406
O	17.97525467295804	-16.22992465103598	21.121332961867715
O	19.111689972688684	-15.777694257229296	20.960001965152212
O	17.81102428569566	-18.687603610343118	21.56613329995857
O	17.49951644193337	-13.984116099356791	23.43962220878089
O	15.407765830131433	-10.796481405007144	18.715556000031295
O	13.94570926473959	-14.700921253917384	20.671159153779577
O	17.441156371932795	-15.306064579987732	24.07372602475893
O	14.373576531605215	-16.07482066265249	21.191255527589615
O	15.626678825527142	-9.81414070957906	17.631961523626646
O	14.524658272367356	-11.763893044275541	18.288018349199557
O	16.49393878106261	-19.36061399081091	21.967861691400362
O	16.44334799407469	-15.60452384039284	24.92925992103339
O	14.17361937036036	-16.35416993175269	22.514789851508215
O	18.322393860274392	-16.318297402047925	23.9311335776903
O	14.050254964540766	-17.097241950122438	20.344139753447976
O	16.684892625617227	-16.366894941058447	26.073292187313317
O	13.357609600629223	-17.402161457743063	22.949163112076995
O	18.813168242170725	-16.812144233079444	25.149425598163866
O	13.516023352604101	-18.312638583499734	20.760932729664212
O	16.238683346092927	-18.782313396065597	23.286535808996245
O	16.87597523665026	-19.318257781389022	24.241675224031468
O	17.97291511261423	-16.859760161188518	26.263209976535716
O	13.182164877598478	-18.486770706543275	22.09819435362534
O	16.291025117904685	-19.58220978659451	25.490465080676046
O	18.195412370977174	-19.843380842777687	24.03221441352778
O	16.097688027883034	-16.65975298822587	16.953428800238882
O	15.677679378918954	-16.41626872354437	18.26593958975261
O	16.992666726713203	-12.767831412866723	21.454634395742147
O	16.37780663275311	-11.562274923983995	20.889812836468142
O	18.251540804751556	-12.551608726584089	21.451958261906107
O	16.78083572851574	-12.80334516677652	19.080766903445134
O	15.55665404958601	-13.371643315509543	19.686323948500917
O	17.618190592204556	-13.623215902056966	19.32190550598215
O	14.732966550334629	-15.37154765082214	18.35743325074017
O	13.5985085212304	-15.78681789988047	17.95922162413213
