82

O	0.5268939335454534	4.7621378988545455	-2.456536376163636
O	0.6487753335454534	3.3371422088545453	-2.620836346163636
O	1.4999081435454535	3.2153813788545453	-3.844751796163636
O	2.1819868135454534	4.565739208854545	-4.034543146163635
O	1.1314475135454536	5.497409948854545	-3.545884196163636
O	-0.7355231854545464	2.8106661888545457	-2.830520966163636
O	-0.4747343064545465	5.320024368854545	-1.6495247101636359
O	-0.6389499784545465	6.807713228854546	-1.554401739163636
O	-0.5434695274545465	7.033929458854545	-0.10762875816363582
O	0.8728522335454534	7.362833148854546	0.08964993783636421
O	1.8029059935454537	6.2495840888545455	-0.33781148316363585
O	3.0629511735454535	6.907705478854545	-0.7597320141636359
O	2.6028255335454533	8.214270408854546	-1.3105804201636357
O	1.1477286635454533	8.352570928854545	-1.0390801031636359
O	-1.5280293044545465	3.3160432488545455	-3.682167166163636
O	-0.9685737404545465	1.5024792888545453	-2.2913274661636356
O	-2.1966518794545467	0.8729427288545455	-2.7811546261636355
O	-3.1799503664545465	1.0396602278545455	-1.6965334291636358
O	-2.9469481964545468	0.30343584885454544	-0.5809766301636359
O	-3.8126119364545463	0.1921151988545453	0.4518321038363642
O	-4.778116716454546	1.0803617048545453	0.6509450238363641
O	-4.672147506454547	2.0809647458545455	-0.23241483816363584
O	-3.948340296454546	2.1211814168545455	-1.4026283811636358
O	-5.511867716454547	1.0137345948545455	1.8741788238363641
O	-1.2716648693545465	4.657638898854545	-0.9158226631136358
O	-6.517998546454547	1.7513461248545454	1.981377043836364
O	-5.7387547064545466	-0.031890891145454514	2.7478806738363644
O	-0.26303168645454655	-6.079569991145455	-7.575401556163635
O	-0.47787407745454646	-8.889430891145455	-5.101634096163636
O	5.854845073545453	-4.360633541145455	-1.8520906271636357
O	8.753711343545453	-2.3094624011454545	-3.2031144961636357
O	6.234774633545453	0.19079961885454533	-4.502065596163636
O	4.7350516735454535	-2.474210531145455	-6.778499116163636
O	7.998205683545454	-2.4395722511454547	-8.714298406163635
O	9.565660743545454	0.9717071218545454	-8.112203796163636
O	7.974866813545454	4.3484350588545455	-7.688773296163636
O	7.144311383545453	9.951416318854545	-8.831115396163636
O	4.844202943545453	8.041216608854546	-11.117472946163636
O	7.574418913545454	6.817718408854545	-13.454462746163635
O	7.171444463545454	3.2588115488545455	-12.214612046163635
O	9.721487843545454	6.236038978854546	-1.7714853231636358
O	8.708528143545454	10.411515178854545	1.959202743836364
O	6.624013333545453	7.714509478854545	3.553693473836364
O	7.205654663545454	4.359364838854545	1.831079803836364
O	9.353466243545453	3.2227889188545453	4.764653833836364
O	10.739317943545453	-0.30540109114545455	4.216482003836364
O	8.209719803545454	-1.0676850211454547	1.4762298738363642
O	-5.800875396454547	-9.534916491145454	3.8641490238363643
O	-6.5162175664545465	-11.053937091145455	0.44552815383636424
O	-6.358143046454547	-9.758751691145454	-3.093052296163636
O	-7.940485306454547	-9.074766591145455	-6.476686086163636
O	-7.985110126454547	-5.319371701145455	-5.996280226163636
O	-10.898464296454547	-2.9501322911454544	-6.354640336163635
O	-12.514011956454548	3.3278427988545456	-3.673913016163636
O	2.444577363545454	10.818753368854546	7.272162313836365
O	8.651970343545454	-0.7541018911454547	9.964467753836365
O	4.889633833545453	-0.20603849114545447	9.464040053836364
O	1.7604889535454535	-1.1663002511454548	11.323091453836364
O	-1.8683369904545464	-0.2930207111454548	10.646416753836364
O	-5.027738976454547	-2.3988526611454546	10.695369553836365
O	-8.748013436454546	-1.8068723911454545	10.258288453836364
O	-7.305562576454546	-3.1422395311454547	1.0381252538363641
O	-7.581075026454546	-1.0212543311454545	-2.078806316163636
O	-5.940881466454547	-0.45558697114545454	-5.477738316163636
O	-4.710131836454546	-3.767301751145455	-6.8707220161636355
O	-4.243230426454547	-5.319675191145454	-3.4037377561636357
O	-0.8650774424545464	-3.652840531145455	-2.9571549961636356
O	1.9745833535454536	-6.088614141145454	-2.184120656163636
O	-0.19993165645454636	-4.291379151145454	1.896933793836364
O	1.7000768835454536	-0.9703464811454547	1.5834707338363643
O	-0.43535914245454643	2.1179634558545453	1.5901455238363642
O	-3.492734116454546	4.0305188688545455	2.749338693836364
O	-5.569943856454547	7.101923498854545	2.080756883836364
O	-8.541445136454547	6.162038498854545	-0.01276531916363588
O	-10.078209066454546	2.7819721818545453	0.7777818238363641
O	-12.626998756454547	5.483175998854545	4.791398133836364
O	-8.374019996454546	5.918912248854546	8.167373013836364
O	-6.435322846454547	2.6319088388545455	8.444117443836364
O	-4.542271576454547	0.4665952888545455	5.9870221638363645
O	-0.8104185844545464	0.48162782885454547	6.470442903836364
O	1.3127385835454535	-2.608237321145455	6.213175883836364
O	5.003165413545453	-3.2870515811454544	5.971909283836364
