19

O	15.366761451997643	-12.129319440447908	20.150705310134267
O	16.160069570800577	-11.445566920251657	20.910589723485597
O	15.403675219373113	-11.299415422387966	18.849684030003644
O	15.800384328761066	-12.567061104470794	18.078985797858678
O	15.94139710134057	-13.92336993665716	18.660019825759765
O	14.798769201023221	-14.415792329436613	19.587843226521514
O	14.432664517730732	-13.196137298422492	20.34033737878224
O	11.891038636190451	-10.46991814158429	22.4738857964941
O	10.500393886594505	-9.884909066606626	24.28492524381182
O	12.38119578448004	-9.103511502104308	22.420019388907345
O	11.088825632062212	-11.979958488961444	24.075485592105757
O	12.97395277883059	-9.169510311379163	21.048191825774595
O	13.642371140373362	-10.73704735500567	19.430998649472702
O	13.963721819552125	-10.13270423026667	20.73293387014615
O	12.695917361724092	-11.937014664940664	20.61942985037998
O	13.678033560083305	-11.359280681030313	21.46860489808437
O	13.015583698077187	-11.337132654941822	22.685922435640382
O	10.865094458147084	-10.836931042107858	23.366283627953297
O	13.620107147316876	-12.16193331948887	19.62709034033101
