35

O	11.970823064866845	-8.39464464424315	23.94284463930017
O	13.883516837457499	-10.636703595230188	21.22684170194139
O	13.201598860353661	-11.85521860303176	21.137345420817617
O	12.017518108208261	-11.808111184175582	21.798150366909347
O	11.601590032809327	-10.563165338982355	22.25547805646281
O	12.522604770976834	-9.70333965569819	22.963830814827965
O	13.408373421109214	-9.502969688541347	21.898360828657303
O	14.45756547756116	-10.243890816034732	19.890483583135556
O	15.844955850120511	-10.46981917796236	20.059071018296237
O	16.54009398139329	-11.557736121337811	19.5061392812529
O	17.885659792749376	-11.701209504196612	20.147867866964525
O	16.23504877815442	-12.198579035658142	18.48871074323591
O	13.341963214384112	-12.72133817133345	20.079087458825974
O	18.867180016069526	-11.598785408741978	19.0386788640483
O	19.47982297871919	-12.968395220387485	19.01209122767827
O	19.399743601257036	-13.312042765134235	20.45053604408382
O	18.11937139911845	-12.853742948080033	20.957596726844752
O	17.787576209109382	-13.172877134411156	22.287161192713544
O	18.131482222129552	-14.33609525818389	23.073742264339092
O	17.22040250923746	-15.32861202566042	22.92099917093387
O	16.771776412616756	-15.647873962550927	21.636335437646565
O	16.090342507339322	-16.684977514373394	21.763996062630568
O	17.57053727503405	-15.851052207692263	20.367577919406468
O	16.822158169801945	-15.14339689193282	19.219393239799345
O	15.716851627442065	-14.57065575919459	19.794857236324468
O	14.678784473543908	-14.614448159596842	20.691542938082975
O	14.501898807416278	-14.17590967464723	21.875809944565106
O	13.494912646920367	-14.081830807425796	19.915401429486785
O	16.85693398593803	-12.605880298148364	22.845142388185618
O	19.023105470023417	-14.532463248808956	24.160102338929377
O	19.452894173028	-13.404079796690137	24.986860304011962
O	20.46678083530242	-13.759215483902189	26.066875275572542
O	21.580441846492775	-14.637455413961332	25.58051143908353
O	20.923359954451065	-15.83270854114187	24.896157134632226
O	20.267089583329934	-15.255537707486928	23.64395743609426
