12

O	12.32136068880436	-7.363274552385761	22.598367941496424
O	12.337278789453947	-9.007165524452853	22.508698920238405
O	13.382568674317197	-9.753936243112946	22.21182164936622
O	13.154885829877424	-11.077995036432641	22.313986454539137
O	11.888907513411466	-11.512494739210926	21.99727137583235
O	11.066053864118206	-10.920271650419902	22.894009291954728
O	11.345031145870397	-9.645935068357705	23.2586014385737
O	11.832070395617569	-12.853668954397127	21.542331914004187
O	12.761004621662346	-13.801707808351509	21.856765308611028
O	12.532353007956601	-14.720819834089777	20.879473990679433
O	12.505069668035892	-13.99654903480518	19.81330395297931
O	11.898601103487026	-12.90846293596245	20.204460730478324
