81

O	0.5221115670199996	-0.43241554378620056	3.0478426597600006
O	-0.45623434318000033	-0.3450234267862005	4.069124379760001
O	-0.9898692731800003	-2.5818117397862004	5.065693779760001
O	2.2694675568199996	0.8906952332137994	6.510344459760001
O	-2.84582086318	-1.1174255697862006	4.734302929760001
O	-1.2285996131800003	0.8909406402137995	3.7346521297600006
O	3.72697837682	-1.5037300797862005	1.9236040397600007
O	2.1358398868199995	-1.4732155897862005	4.217413679760001
O	-0.1216812471800004	1.9474685502137994	3.8256767197600006
O	6.174354216819999	-0.9417500497862006	3.3873875497600006
O	3.95535510682	0.5953540422137995	1.2060325037600008
O	0.5031741061739996	1.6974806002137994	5.151487019760001
O	4.6265554368199995	0.16731104321379947	4.621288729760001
O	1.9516982068199997	1.7690783902137994	5.379526779760001
O	2.2891626868199997	-1.4617532497862007	1.8732873897600006
O	1.8785123468199996	-0.7848570797862007	3.174231969760001
O	1.9352007668199995	-2.8643763597862004	1.9946561697600007
O	2.99661513682	-3.4745093097862005	2.831250839760001
O	4.19302302682	-2.6798145697862004	2.594391409760001
O	4.333214636819999	-0.20514629178620053	2.078667629760001
O	6.404575876819999	-0.4085024367862005	0.9279583657600007
O	5.7763497268199995	-0.24658658578620057	2.221098959760001
O	5.3047236368199995	-0.8638740197862005	4.5034155597600005
O	5.36620455682	-1.7958649097862007	5.6408854897600005
O	6.49797725682	-4.0013170197862005	0.17758121876000066
O	6.568215896819999	-3.960275399786201	-1.209596900239999
O	6.835019846819999	-2.7654039697862003	-1.8668078302399993
O	6.94138566682	-1.6165641897862006	-1.0917991502399993
O	6.455898006819999	-1.6767489497862005	0.2187868897600007
O	6.91244498682	-2.8443199997862005	0.8280546321600006
O	-1.5071277431800005	-1.4726979697862006	4.221073089760001
O	-8.17526275318	-6.112320739786201	5.813251189760001
O	-8.13810661318	-2.5789482697862005	4.407130059760001
O	-10.10838306318	0.4953874232237995	3.5367292197600007
O	-5.517560323180001	-0.5483631697862006	-3.4608376602399993
O	-4.20248650318	-3.4776248397862	-5.468980010239999
O	-1.8890581231800005	-4.3127231997862	-2.502847600239999
O	-4.93992744318	-4.9132783197862	-0.34583557023999933
O	-5.85047839318	-7.9015718397862	-2.5916957302399997
O	-2.5861220731800003	-9.018906779786201	-4.201874360239999
O	0.9452127758199996	-9.043956129786201	-2.8825020602399993
O	2.94286970682	-12.175605329786201	-3.7475102602399994
O	5.996268056819999	-11.4569896297862	-1.5626732702399992
O	3.7759825068199993	-11.909206329786201	1.4484413647600007
O	1.6548326768199997	-14.6721453297862	-0.12940257323999926
O	-1.3331627631800003	-12.3442166297862	-0.3406205202399992
O	-3.851325773180001	-13.2567776297862	-3.0299401002399993
O	0.28029089581999966	-3.0112780297862005	-10.96129795024
O	4.02754690682	-3.2423626397862004	-10.11899475024
O	4.1674868068199995	-5.1718050497862	-6.871909390239999
O	9.31465201682	-2.8149160197862004	-7.301216310239998
O	7.409660746819999	0.18995580421379948	-6.098498760239999
O	3.64620441682	-0.47412337378620056	-6.099018750239999
O	3.1953338668199995	1.5692238602137993	-9.23958435024
O	-0.4739530801800004	1.6057122902137995	-10.28291125024
O	-1.7119921231800002	0.44354978651379945	-6.892084970239999
O	-9.755022263179999	4.8078858602137995	8.07520572976
O	-6.164233103180001	1.5835640902137995	10.83446734976
O	11.85887573682	3.9126034902137996	-3.5247837002399987
O	1.8042401368199996	8.4117162602138	-7.083718350239999
O	2.7068773668199997	12.1518466702138	-1.4094887302399994
O	1.0415584848199995	14.080563370213799	1.4088156427600007
O	-2.29414667318	6.8535640502138	7.382298179760001
O	-1.0837063431800005	3.6190879902138	9.00125440976
O	-1.5788942731800002	-0.19310171978620055	8.76542787976
O	-5.241763723180001	-0.9025713797862005	8.20602446976
O	-5.8632563631800005	2.4102884302137997	6.352346249760001
O	-4.49147125318	0.9519819182137994	3.1185988597600005
O	-6.897041033180001	1.2551611422137994	0.14829454276000065
O	-3.7765131931800004	5.0796305102138	0.5355446097600007
O	-0.9231163731800003	3.0758084402137995	-1.0365507902399993
O	2.2582771168199995	3.0144185402137995	0.9167450737600007
O	4.697384446819999	4.436377700213799	3.3748461597600006
O	7.705278966819999	3.9154115102137994	5.605015399760001
O	6.454834356819999	3.4679131402137995	9.12058067976
O	3.67182410682	5.8849339902138	10.09221287976
O	8.59642949682	10.6530294702138	5.670254669760001
O	5.329693466819999	11.114063970213799	3.7229241697600006
O	2.3804067968199996	8.8766007902138	2.9329525397600005
O	2.1190564668199996	7.902862020213799	-0.6926933302399993
O	-1.1340947031800004	7.7696498602138	-2.591890230239999
