85

O	-7.290591718498182	-0.5503940982545451	0.468667592745454
O	-6.763834858498182	-0.5643428882545453	-0.894859671254546
O	-3.3246076384981817	-2.3681149282545455	-1.171458054254546
O	-1.175793359498182	-2.679205658254545	2.019879432745454
O	-5.294777168498182	-0.8270704982545453	-0.774271483854546
O	-4.716809118498182	-0.2066050282545452	0.169716782745454
O	-7.055686208498182	0.7890881608454547	-1.482019934254546
O	-3.122833258498182	-3.599285138254545	-2.010022757254546
O	-0.6311968584981822	-1.4566292182545455	2.695893842745454
O	-6.638024038498182	0.9297078737454548	-2.887724167254546
O	-4.227186398498182	-3.605125478254545	-3.030581847254546
O	-1.8204939671981821	-0.7643558382545451	3.355416942745454
O	-5.3207946584981825	-2.8377431382545453	-2.341948907254546
O	-6.548618578498182	2.178229951745455	-3.439341807254546
O	-6.810559218498183	-0.12200763225454525	-3.744225627254546
O	-1.2113410244981822	0.4714435037454548	4.012504262745454
O	-6.082993588498183	2.337724441745455	-4.725773117254546
O	-6.598120168498182	0.06806725474545483	-5.105208747254546
O	-2.320510079498182	1.2102220737454548	4.556235912745454
O	-6.128958058498182	1.2720146937454548	-5.611454727254546
O	-2.086371787498182	2.391723321745455	4.973810672745454
O	-3.0203936784981824	3.0003944017454547	5.825246132745454
O	-0.7970782984981821	2.8935236617454545	5.189036652745454
O	-2.957534948498182	-2.6978261682545455	0.21886858274545395
O	-4.709834198498182	-2.0101502782545455	-1.332901952254546
O	-3.697389318498182	-3.3731490182545456	0.9979919327454541
O	-0.20571929849818216	-3.7950501782545456	2.022019882745454
O	-1.708731297498182	-2.3095225882545454	0.736521482745454
O	0.074556561501818	-4.367061748254545	3.236839392745454
O	-0.16394827849818205	-4.723299218254545	0.8546960627454541
O	5.456097091501817	-7.871667408254545	2.328723882745454
O	8.304688731501818	-5.525008968254545	3.038105532745454
O	5.6612236515018175	-2.6831316882545453	-4.443012317254546
O	4.2390018615018175	-4.188182148254545	-7.623597737254546
O	1.0957541615018178	-5.119861048254545	-5.662411707254546
O	3.208124761501818	-7.379734378254545	-3.438165667254546
O	3.823720421501818	-9.595645098254545	-6.466630917254546
O	0.933376151501818	-8.958316918254544	-8.858723917254547
O	-2.7048003464981822	-8.208574258254545	-8.181100287254546
O	-8.377072278498181	-9.034765168254545	-8.660461427254546
O	-7.217410028498183	-11.216102798254544	-5.808844057254546
O	-5.546905618498182	-13.827505198254546	-8.007447637254547
O	-2.101666191498182	-12.744019098254546	-6.857223407254546
O	-3.622661888498182	-2.4128384382545454	-10.868967787254547
O	-7.670128428498182	1.5720741117454549	-11.156385987254545
O	-5.460678238498182	3.193871391745455	-8.582725517254545
O	-2.161805714498182	1.3076095117454547	-8.221028937254546
O	-0.342024378498182	3.976635061745455	-10.238876057254547
O	3.3715079215018173	3.114169151745455	-10.626267067254545
O	3.2812894615018173	0.5822404127454548	-7.779179267254546
O	8.296473631501817	3.8781548817454548	7.626780702745454
O	7.867836131501818	-3.0004783382545455	8.779454252745452
O	6.5946098815018175	-6.192714748254545	10.402280312745454
O	2.9826370015018178	-5.545159958254545	9.486426512745453
O	-0.03996015849818213	-5.5162471582545445	11.742944812745453
O	-6.329613818498182	-2.406220178254545	11.541418612745453
O	-9.295742728498182	7.262169271745456	-5.548186087254546
O	3.6718751215018175	9.005909231745456	-8.949359817254546
O	2.1970065215018177	8.881352811745455	-5.418428737254546
O	2.5000630815018177	10.979386501745456	-2.307593897254546
O	0.7196659315018181	10.680533391745454	1.029466242745454
O	2.008527451501818	10.940838701745456	4.596004802745454
O	0.5078578415018178	10.875759101745455	8.078355702745455
O	0.4794440915018179	4.469494681745455	9.747274312745454
O	1.578696111501818	1.4817554157454547	7.7523387427454535
O	-0.803668728498182	-1.4904877482545453	7.743876082745454
O	-1.196592802498182	-4.990983368254545	6.249999632745454
O	2.2156342115018175	-6.641913188254545	6.008483882745454
O	4.077854111501818	-3.303754698254545	5.678820752745454
O	3.343625261501818	-3.0716199882545454	1.9756627527454542
O	6.363185301501817	-2.7200153482545453	-0.240909392254546
O	4.382307871501817	1.6190090177454548	1.087907452745454
O	1.627524631501818	1.2911491817454548	-1.541525965254546
O	-1.9074868510981822	1.6378725007454547	-0.267208908254546
O	-4.4210424584981824	3.094208391745455	2.122312762745454
O	-7.966596288498183	2.8581616217454546	3.4451428427454536
O	-7.839780998498182	0.9567019017454548	6.690177302745454
O	-4.895352288498182	1.7844633557454548	8.940718852745455
O	-7.889124938498182	6.133271641745455	10.474156612745453
O	-7.037041048498183	9.112853751745455	5.974567602745454
O	-3.357829128498182	9.047807341745456	4.901970952745454
O	-0.9861793974981821	6.323373021745455	3.781745982745454
O	-0.05444596849818217	6.459302491745455	0.138709754745454
O	3.4579605015018178	5.875837311745455	-1.1189539462545461
O	4.978041811501818	5.248982171745455	-4.490611197254546
