85

O	3.806875690538298	4.577636697914893	1.990801256744681
O	4.072242810538298	4.395923877914893	3.4247865497446806
O	2.3983715205382983	1.434259883914893	-0.019756610255319274
O	4.041019510538298	3.757063977914893	0.8154479377446808
O	0.7059020695382983	3.5134676979148933	7.988209809744681
O	2.996508330538298	1.589739914914893	6.818628989744681
O	2.891571470538298	3.139002472914893	-0.030365950255319296
O	4.5964207205382985	0.22484689791489298	9.142025559744681
O	1.6993058605382982	3.560837477914893	0.46713085574468083
O	2.058200020538298	4.899631147914893	0.37912733174468083
O	2.986088410538298	5.4973886279148925	1.3273857203446808
O	-0.44509260446170185	2.937615134914893	1.6068017457446808
O	1.5151057005382982	1.432319030914893	1.5020629597446808
O	0.8945367505382982	2.595521091914893	1.0200083957446808
O	1.8622907805382982	1.000923917914893	2.898477799744681
O	1.149457320538298	3.796252677914893	3.390534659744681
O	1.0372111295382982	0.516635657914893	3.8499145397446806
O	-0.09778502046170179	3.527579597914893	2.9085415097446807
O	1.3534783025382982	0.955700737914893	5.15334915974468
O	-0.8870105194617018	3.132825164914893	3.998984339744681
O	2.560290360538298	1.501139172914893	5.491948039744681
O	1.394700740538298	2.379398954914893	9.84176114974468
O	3.5509892205382982	1.406734959914893	4.553714679744681
O	0.5470331955382982	4.222434567914894	5.577674329744681
O	3.204557390538298	0.786413487914893	3.3378525597446806
O	1.2563300645382982	4.691846517914893	4.461885229744681
O	4.904942920538298	-0.7398940820851068	8.12265099974468
O	-0.11484406346170184	2.226463764614893	9.68574406974468
O	4.346444090538299	1.706631016914893	7.189070729744682
O	-0.4217862154617018	3.521636277914893	8.935673309744681
O	1.7693176005382982	3.598137677914893	8.99579014974468
O	3.408100660538298	-0.32198158208510685	9.74062245974468
O	2.5221453805382983	-0.5286424220851069	8.51484955974468
O	3.5584182405382982	-1.013676422085107	7.51195401974468
O	0.7022113885382981	4.529483537914893	6.99077892974468
O	-0.7301582194617019	3.815068437914893	5.199622549744681
O	4.475357940538299	1.574804122914893	8.677839279744681
O	-2.3089212494617017	4.622264697914893	5.784695339744681
O	-10.101194779461702	2.445091359914893	1.2249811867446807
O	-7.941942309461702	1.334604528914893	-1.6702596202553193
O	-3.796029449461702	-6.061931822085107	-2.053403240255319
O	-4.085757309461702	-8.230742672085107	1.0439049357446808
O	-2.951028559461702	-5.215988292085107	3.096904869744681
O	-6.0282862594617015	-3.2716200020851067	1.9911102077446807
O	-8.113952159461702	-5.757365152085107	3.9640167897446807
O	-5.810315989461701	-7.189394132085107	6.6329858297446815
O	-3.031337229461702	-5.555893482085107	8.588984269744682
O	-0.20212095346170178	-3.9553476220851067	13.34303802974468
O	-2.797730529461702	-1.3692505120851068	12.73768422974468
O	-5.817815929461702	-3.3838269620851067	13.78646702974468
O	-7.0501967194617015	-3.557268252085107	10.19758565974468
O	-9.306649549461701	-6.462113032085107	9.47923095974468
O	2.2246399305382982	-8.974729772085107	7.024681979744681
O	7.734001410538299	-7.440074582085106	4.283812479744681
O	4.225917370538299	-7.785588172085108	2.830902819744681
O	5.299408450538299	-10.830415572085107	0.8085215417446808
O	2.3723765105382983	-12.256593672085106	-1.2195319302553194
O	0.31797073323829816	-9.068054672085108	-0.8524153402553192
O	-5.739909499461701	5.294523417914894	-8.739388470255319
O	-7.573624239461702	7.919771047914893	-6.71689429025532
O	-4.846960299461702	8.201618617914892	-4.14687892025532
O	-3.101942639461702	11.310111467914894	-2.8836037802553194
O	3.267187770538298	12.688766027914893	-0.2578074802553192
O	2.3654492705382983	15.499777727914893	2.1292782817446807
O	7.471176800538299	-8.336340672085107	-5.737054030255319
O	4.459991370538298	7.032272397914893	-8.13176415025532
O	1.597789720538298	5.500886907914893	-6.24453107025532
O	0.6745085145382982	6.999542267914893	-2.9703888902553195
O	-2.031692179461702	6.703765437914893	-0.18900554025531924
O	-5.241631289461702	5.528057657914893	-1.6217354702553193
O	-3.587187519461702	3.834780417914893	-4.569343230255319
O	-2.858852859461702	0.678534187914893	-2.656249250255319
O	-4.353781779461701	-2.432169072085107	-4.186603470255319
O	0.2019309225382982	-1.486836672085107	-5.757796270255319
O	1.6557678805382983	-3.018020472085107	-2.608884450255319
O	4.306906330538299	-1.039795132085107	-1.0032876902553194
O	6.878601010538299	1.873340902914893	-0.8806265102553192
O	8.938661410538298	4.4669766079148925	1.0854317417446808
O	7.295499530538298	7.979256217914893	0.7530344047446808
O	5.730968830538298	8.694175237914893	-2.5421626402553192
O	10.937487020538299	10.165198437914892	-3.695223500255319
O	10.5759423205383	2.880197342914893	-6.200813250255319
O	7.0173785405382985	1.719542592914893	-5.7713315602553195
O	6.664609130538299	-1.9086049120851074	-4.98954125025532
O	4.155769250538298	-4.162825502085107	-6.706031950255319
