88

O	-0.0666527212800001	6.189076642580001	-6.177901833779999
O	0.29183346872000016	4.91970725258	-6.592067643779999
O	-0.4943051512800001	4.17831496258	-7.414930533779999
O	-1.41946892028	4.8808031325800005	-8.186863643779999
O	-1.91988644228	6.05005681258	-7.6244201037799995
O	-1.16558006128	6.7797329925800005	-6.744561123779999
O	-0.2386720712799999	2.8030965625800004	-7.8808389837799995
O	-2.50516683928	-3.5227379474199996	-1.904629155779999
O	-1.7664112432799999	1.9370385685800005	-7.735689053779999
O	-1.41609680028	-1.0937608374199994	-0.5551491237799993
O	-1.5959991382799998	1.3421561255800003	-6.104037743779999
O	-1.30874159028	2.3808654035800005	-3.862127863779999
O	-1.96100137228	3.0096801025800004	-2.8025496517799993
O	-2.97747579328	3.8994972825800005	-3.146220553779999
O	-3.01156361028	4.2449098025800005	-4.400155953779999
O	-2.54466932028	3.4519367425800005	-5.530761663779999
O	-0.44200877128000005	1.6305371917150004	-3.517007242779999
O	-4.18085053128	4.233256332580001	-2.361675556779999
O	-1.90334730028	2.70604333258	-1.449652703779999
O	-2.08265200128	1.3745779315800004	-0.9232260737799991
O	-1.73570854328	2.2698453675800003	-5.2702010237799986
O	-1.27979162828	0.35056538258000036	-0.37513877377999894
O	-2.77213138228	-0.9647161774199995	-1.221288633779999
O	-3.25971567128	-0.054157487419999484	-2.1353161307799993
O	-4.58939767128	-0.3666459574199996	-1.8270608227799991
O	-4.41553553128	-1.7133398774199995	-2.154354968779999
O	-3.11632506428	-2.204322887419999	-1.7147706857799991
O	-2.2925690472799998	-0.12029048741999948	-3.2481873327799993
O	-3.40052242128	0.4278907325800003	-3.820885953779999
O	-4.477378981279999	1.3672829465800005	-3.776707863779999
O	-5.26624779128	1.8408409345800005	-4.8276313437799985
O	-6.62092797128	1.2651023725800004	-4.463276443779999
O	-4.87695903128	1.1866417455800005	-6.114758683779999
O	-5.69929332128	3.1966692125800007	-5.152519773779999
O	-3.79505248128	-0.4401110074199994	-4.7349324037799985
O	-3.20181371128	1.2095344505800005	-0.4431674437799993
O	-2.04602605328	0.8721656155800004	-8.704846483779999
O	-2.87720471228	2.9225615625800003	-7.849258643779999
O	-6.04611925128	-2.106351987419999	7.26279839622
O	0.21847734872000002	3.6331576225800006	7.53715554622
O	-0.9352589412799999	7.23187183258	7.33342990622
O	-2.91333753228	6.28650835258	4.176624876220001
O	-5.00352891128	3.93307233258	6.325671626220001
O	-6.38756841128	6.93968481258	8.173086746220001
O	-5.99560086128	9.88235424258	5.781226866220002
O	-6.23864781128	10.07225616258	2.007802356220001
O	-8.22358901128	12.14124755258	-2.958157639779999
O	-10.59030281128	9.41201030258	-1.9113529487799992
O	-12.290121731280001	11.36576955258	0.845409376220001
O	-10.67333399128	9.27687740258	3.559695426220001
O	-0.42368789127999995	12.11845825258	0.17600637622000104
O	4.162880658720001	9.79528257258	-3.447073754779999
O	3.0440266587200004	8.82975512258	0.07861907622000075
O	6.38690318872	9.92412710258	1.543977216220001
O	3.45771320872	7.028559402580001	5.250893806220001
O	-2.03440337628	-9.53105364742	6.91465340622
O	-5.67052683128	-10.35195314742	6.16314842622
O	-5.67491934128	-8.63860984742	2.791774076220001
O	-6.73393531128	-10.01914154742	-0.5650857237799993
O	-5.14997219128	-8.56445954742	-7.289322783779999
O	-8.37662554128	-9.58362174742	-8.87305266378
O	6.696374328719999	7.36492286258	-8.79517112378
O	10.729932868719999	3.9647795225800007	1.5455446962200012
O	12.18929446872	0.6186104025800003	0.5912659062200007
O	10.84151056872	-2.0509820974199995	-1.765927754779999
O	10.731971268719999	-5.837769747419999	-1.402811653779999
O	9.68032756872	-8.76180474742	-3.572074162779999
O	3.22802296872	-9.50779744742	-2.273313702779999
O	1.01157724872	-7.508925127419999	-0.002254523779999129
O	-2.35292238828	-6.49718719742	-1.4883374037799992
O	-5.57401912128	-4.53201476742	-0.5460187637799989
O	-6.284596411280001	-4.96650380742	3.1291165562200005
O	-2.60177868628	-5.532904707419999	4.0828714262200005
O	-1.96520504228	-1.7440786574199996	3.8992924062200007
O	-0.47046080128	-0.5361744174199996	7.238776516220001
O	2.9941706287199996	-1.8559431174199996	3.993463996220001
O	2.6262397387200003	1.4370781505800005	2.083446156220001
O	1.9978721887200002	1.0526437355800005	-1.5966382337799991
O	2.27510852872	-0.8054711674199997	-4.831676073779999
O	1.0833143287200002	-1.1329589474199995	-8.33792731378
O	-1.42220825828	-3.9018220274199997	-8.422284753779998
O	-0.35789020128000004	-6.913835437419999	-6.427573983779999
O	2.8240585387199997	-8.224827597420001	-10.73848750378
O	6.71491193872	-4.533086077419999	-9.726113223779999
O	7.6517738487199995	-4.466308077419999	-6.010987073779999
O	5.75699508872	-3.6695609874199997	-2.822850863779999
O	6.8201479987199995	-0.4625693574199994	-1.193922563779999
O	7.26695547872	-0.07131030741999966	2.5126650262200005
