33

O	10.605635288600133	-11.908789369437844	24.17028085227502
O	10.61082967681785	-9.770828684138877	24.262157591399454
O	11.24412053857857	-10.898225704010638	23.7495081436233
O	12.276948771263143	-11.075161869785264	22.77564357386239
O	12.823442114485974	-10.120875286028	22.00362014547106
O	14.129481066726603	-10.363180362414152	21.549787543939246
O	14.517178734830944	-11.544704060970371	21.01098248478672
O	13.836701265037673	-12.555676749816751	21.690722867010784
O	12.561832168865191	-12.321805694404183	22.23659645245964
O	15.678582111460837	-11.768007056660839	20.13597659909083
O	15.77070088622009	-12.929087856279391	19.310592923958602
O	15.42850912362115	-12.572272073703038	17.927535713201486
O	17.385332868624484	-14.77902337944511	19.832070179303674
O	17.654576843244747	-13.714789025057776	17.8184224316482
O	17.108918493887135	-13.43572020237282	19.225123467459703
O	17.934299748205262	-12.286757525209005	19.72433450594297
O	19.135053692714326	-12.883257336067613	20.467650971496706
O	19.65432308867811	-13.989263883740266	19.599864456966586
O	18.434390016498664	-13.49136529270171	21.600984151946975
O	17.18950618042989	-12.812028178129404	21.80782685033432
O	16.48784227119808	-12.945703049375894	22.825295384688978
O	17.028860186119122	-11.729764704718482	20.780424540398382
O	18.698518249212654	-14.722785938657672	22.35167682587883
O	19.548586051615683	-14.354635971684194	23.483076291018197
O	20.477497194951383	-13.318492062443703	23.383343024401178
O	21.53623677957114	-13.412149974513643	24.281256672491423
O	22.928301314568465	-13.257734778188969	24.179358720167833
O	23.404725731173727	-13.613817256586085	25.438858974480564
O	22.318427461895265	-13.479440089088675	26.315476407083086
O	21.19625156857029	-13.826260400539674	25.55830673628868
O	19.968647243962465	-14.398428484096659	25.78742972124487
O	19.04757590960094	-14.571521066223536	24.761635051586605
O	20.100329866054125	-15.076400326722785	20.53293877074205
