86

O	-0.0013291913673465494	-0.477176985210204	-1.4282827495102033
O	2.469248488632654	1.448280417789796	-1.5786172145102033
O	3.6778225686326538	2.163116234789796	-3.2768763585102034
O	7.586745348632653	-2.161433495210204	-3.791182308510203
O	0.7099911736326535	-0.026454412210203948	-2.498650748510203
O	-0.4042377213673465	-5.118918685210204	-2.3113227435102033
O	4.378153848632653	-0.28063152121020396	-1.123777747510203
O	1.2852621301326534	1.3071883587897961	-2.433760356510203
O	-1.9204254113673465	-4.174148905210204	-1.0533207905102033
O	0.7974935546326536	-0.9588743452102039	-3.527699508510203
O	5.832726568632653	0.978848605789796	-2.0434820685102033
O	8.850345358632653	-1.3447772352102039	-4.116859798510204
O	0.6592255196326535	-2.2534862452102042	-3.0296174085102034
O	6.510091008632653	-0.9516659652102041	-3.6109177885102035
O	7.6153487786326535	-3.194285495210204	-4.807618608510203
O	-0.22822930136734643	-2.689874345210204	-2.112583234510203
O	-0.7897394513673464	-3.9870506252102045	-1.8852402075102033
O	-0.8065243813673464	-1.612716975210204	-1.5126088635102033
O	3.782803918632654	1.623031909789796	-2.170747035510203
O	5.034082458632653	2.106291434789796	-1.5147789565102032
O	4.714912388632653	1.682980263789796	-0.11343730851020317
O	5.527044738632653	-0.3086100552102039	-1.6633791982102033
O	5.401513938632653	-1.262380155210204	-2.818206448510203
O	4.075889518632653	-0.9083926452102039	-3.4914954685102035
O	7.621482358632654	-2.773949235210204	-2.1408676315102033
O	8.835141028632654	0.41865925278979604	0.20737120148979682
O	8.953856268632654	0.530447024789796	-1.1507143665102033
O	8.884299288632654	-0.567122595210204	-1.9594300495102033
O	8.504307168632653	-1.789329535210204	-1.4278883495102033
O	8.636491908632653	-1.931067415210204	-0.08984132851020332
O	8.579662978632653	-0.8273809352102041	0.7054640614897967
O	6.611659498632653	-0.5527134152102039	-6.713753648510203
O	5.619034838632653	-1.5276079952102042	-6.684023478510204
O	4.9698586786326535	-1.6438784252102039	-5.4591102385102035
O	4.564295538632654	-0.43429222521020405	-4.845834378510204
O	5.585587658632654	0.507009371789796	-4.948764258510203
O	6.268573668632653	0.6265396811897961	-6.114393488510204
O	-5.038192351367346	7.897721444789796	-3.382970538510203
O	-2.1192321613673464	7.136275774789796	4.626340871489797
O	0.7599178026326535	9.451936724789796	5.486804241489796
O	2.5762376586326536	8.211175674789796	2.3636145114897964
O	-0.2659917213673464	9.617281754789797	0.22980011148979673
O	0.7605874956326535	13.106766244789798	1.3335657214897967
O	4.429662978632654	12.854815344789797	2.3419078014897963
O	7.223793988632654	10.738575744789797	0.9179746114897969
O	10.102946418632655	10.724582944789796	-4.219447238510203
O	6.203938138632653	13.969756344789797	-2.4515692185102034
O	9.298581578632653	0.789525376089796	6.783699291489796
O	6.362320038632653	3.228789454789796	6.741012831489796
O	5.6727141886326535	2.628686634789796	10.393221141489796
O	2.7236499586326532	4.761942194789796	11.580586941489797
O	1.4259370986326536	5.394275964789796	8.078205071489796
O	-10.528510201367347	1.5943940017897962	-4.251775728510204
O	-10.050878801367347	2.916494024789796	-7.781433308510204
O	-6.502316211367346	1.643088944789796	-8.071518868510204
O	-4.970824221367347	-0.48604861521020404	-10.786972608510203
O	0.4713506176326535	-4.950648735210204	-11.119732988510204
O	1.6539522816326535	-4.323414255210204	-14.624870158510204
O	10.944252938632655	-5.153068905210204	5.444668121489797
O	0.6907422626326535	-2.785760815210204	10.910628741489797
O	-1.2384953713673463	-5.905349325210204	10.040357041489797
O	-1.3513160313673465	-7.9217066952102035	6.824270741489796
O	-4.2318788413673465	-9.447609455210204	4.877207201489797
O	-4.6493324413673465	-11.614351355210204	1.7862196014897969
O	-4.989737191367347	-7.309506655210204	-3.235590938510203
O	-4.857880741367347	-3.5682789752102044	-3.196548878510203
O	-2.5442517013673465	-1.9818632552102042	-5.790841948510203
O	-1.3232515213673464	1.431196686789796	-6.975716328510203
O	-4.116243161367347	4.026861614789796	-6.524325368510204
O	-5.666581471367347	2.132010334789796	-3.6084176185102033
O	-3.183249481367347	3.535572114789796	-1.1175008655102032
O	-4.8124913413673465	5.338912064789796	1.8424113214897966
O	-3.940564061367347	0.5295689537897961	2.689650291489796
O	-0.25345187136734637	1.181725600789796	3.422214911489797
O	2.1597514846326535	-0.918029385210204	1.4254558914897968
O	3.033290148632654	-4.136249985210204	-0.35617454851020325
O	5.527830358632653	-5.846282205210204	-2.7126765245102034
O	3.9201551286326533	-5.887786175210204	-6.166353898510203
O	0.2616107736326535	-6.510596535210204	-6.142343848510204
O	-1.4873795813673463	-9.865237055210203	-5.7098087985102035
O	1.7807704336326535	-11.812820655210203	-5.816114338510204
O	3.0473412886326536	-11.706901055210203	-0.48943849851020316
O	0.3663912126326535	-9.906697455210203	1.5831417614897967
O	-0.9519420813673463	-6.3578187652102045	1.6297100814897967
O	0.004308958632653459	-4.372930825210204	4.684514131489797
O	-2.3280426713673465	-2.072974825210204	6.494960071489796
