24

O	12.552433254117885	-8.374002345802339	24.76474158204708
O	18.09758518480849	-11.67099265509222	20.535358053282575
O	18.3993919901993	-12.926226855982044	21.165952031666137
O	18.989015724545823	-11.542864527270314	19.339716580866085
O	16.719662020338827	-15.587982830965071	22.857691555637818
O	20.14451182627635	-12.440488992711998	19.68647649024498
O	19.464902870688935	-13.554699560751061	20.429156122325033
O	16.65277404775059	-11.734443431298235	20.146777255408214
O	20.15256052475472	-14.360511809318567	23.58700073822623
O	21.01693526965348	-13.90117955996893	24.72054845496966
O	17.55853499561293	-13.491755471555638	22.17858109930115
O	17.953347526045455	-14.828470592622246	22.662501193291497
O	18.69078606176205	-14.611266773704013	23.984842324994354
O	20.687327854198877	-15.67211502078041	23.10424744933578
O	16.218051484157847	-12.760173529332782	19.58545285330986
O	15.889340836127493	-10.591837916830718	20.46410610106131
O	14.46967421420089	-10.619214796748835	20.272193386212738
O	13.597718683260489	-10.573724239002173	21.45511538001116
O	12.68104960808075	-11.600056441455205	21.675506433807747
O	12.400807892019404	-11.865090176112197	23.014773039193535
O	12.145648490226074	-10.82542617597827	23.90572076006388
O	12.508571354701036	-9.561779939875802	23.438546401508006
O	13.34477810527289	-9.507802024181649	22.3195538225035
O	16.546393092882276	-12.907640492976716	22.634409231447382
