82

O	3.8749488626773587	0.058821556107546025	-1.1060103501886804
O	4.902445312677358	1.056229536107546	-0.9660585021886804
O	4.195446482677358	-0.7718466338924541	-2.31542951618868
O	5.304330252677358	-0.03671307389245415	-3.03123709618868
O	5.949952972677359	0.7257097461075459	-1.8968554461886804
O	5.995026032677359	3.060029366107546	0.06389438081131965
O	5.2738540626773585	4.746538296107546	-1.6320351361886805
O	3.7137987426773584	-0.7493464538924539	0.11579225881131963
O	4.062901312677359	5.388845636107545	-1.8640739661886805
O	3.7879167726773586	5.905648966107545	-3.1193511261886804
O	4.483586182677358	5.422356616107546	-4.22043039618868
O	5.345631992677358	4.376464566107546	-3.99019304618868
O	5.744045772677358	4.018481226107546	-2.7047405161886804
O	6.516042042677359	3.019883606107546	1.4303477038113197
O	4.834910332677358	2.133287161107546	-0.05380322618868036
O	0.4816808573773586	1.533815580107546	5.80134808381132
O	4.741251422677358	-1.1475558438924542	0.7000964938113197
O	2.4337531226773583	-1.156107423892454	0.5518505808113197
O	2.3923830426773587	-2.0230115838924543	1.7268826538113196
O	2.0552828526773586	-1.167919643892454	2.87604984381132
O	2.906610752677359	-0.3911293138924541	3.59759258381132
O	2.3746054926773583	0.5106743861075459	4.478801023811319
O	1.1002158756773586	0.584010994107546	4.914158863811319
O	0.2789285996773586	0.05237825610754587	3.9939172638113196
O	0.7646415706773586	-0.7805369838924539	3.0392020038113197
O	4.049895762677359	2.107178716107546	0.9419594738113195
O	5.629934502677358	4.488290646107545	-0.22454522858868037
O	1.1732284346773585	2.009747784107546	6.730589883811319
O	-0.8322520673226415	1.5053976041075459	6.277700333811319
O	-0.9645802573226414	-9.849238653892455	0.04902326681131963
O	-4.5904633473226415	-9.481768953892454	0.9712485138113196
O	-3.911277567322641	-3.828630483892454	-5.251123556188681
O	-2.0044878373226416	-3.5517135538924545	-8.52581559618868
O	1.2234433946773586	-3.3163716538924537	-6.52556525618868
O	0.5881224477773586	-6.811118823892455	-5.1347343161886805
O	1.0958146116773586	-8.158574943892454	-8.64761409618868
O	3.2328046026773585	-5.596224573892455	-10.47906253618868
O	6.025682952677359	-3.3860335838924542	-9.20849951618868
O	11.342122652677357	-1.1846739038924539	-9.23693789618868
O	11.491143752677358	-4.316277703892455	-7.1356545661886805
O	11.293335452677358	-6.731657193892454	-10.05943229618868
O	7.794745622677359	-7.797219403892454	-9.06660134618868
O	3.879864652677359	2.588973436107546	-10.29323733618868
O	5.400142052677358	7.9501629861075465	-9.16739258618868
O	2.7326603726773584	7.545597266107546	-6.549548806188681
O	0.8114282046773587	4.2895668361075465	-7.03526606618868
O	-2.1355487473226415	6.169046816107546	-8.53364996618868
O	-4.940995067322641	3.761562346107546	-9.54554925618868
O	-3.5413200373226412	0.9340553951075459	-7.397801626188681
O	-5.345466567322642	-8.709553153892454	7.159599013811319
O	-2.6125105873226415	-11.174635853892454	8.10173008381132
O	0.1689224416773586	-8.625569843892455	7.79255451381132
O	2.8251548426773585	-7.737808633892454	10.31808596381132
O	6.724669472677359	-2.055158373892454	11.60736236381132
O	4.127999142677359	11.978394546107545	-2.2092871761886803
O	-8.074319057322642	8.087478426107547	-6.52373787618868
O	-6.654055037322641	7.744109036107545	-2.97945338618868
O	-7.878828877322642	8.508296336107547	0.49546267581131964
O	-6.117002327322641	8.231010026107546	3.83860677381132
O	-7.280314457322641	6.864941536107546	7.187999963811319
O	-5.877893957322641	6.618728696107546	10.69885376381132
O	-2.1257123573226413	-1.627309983892454	7.98910725381132
O	1.4006875876773586	-2.9286845638924537	7.504127663811319
O	3.4483720126773587	-5.2847711538924536	5.29088218381132
O	1.3070055956773587	-8.243699663892455	4.2645199738113195
O	-1.9777104773226415	-6.291528323892454	4.5309766738113195
O	-1.4957303673226412	-4.7517218438924544	1.0877069438113196
O	-4.408557177322642	-5.332875073892454	-1.2937141761886803
O	-4.840630587322641	-1.1091129038924539	1.2760083538113196
O	-2.3229539373226413	0.6691217741075459	-1.0192479941886803
O	0.6238496476773586	2.3174088411075457	0.6876237998113196
O	2.1012353426773585	4.166146916107546	3.64143999381132
O	5.374552582677358	5.2842045861075455	5.22244120381132
O	6.2895889626773585	2.8237240361075457	7.9475534138113195
O	3.3540455026773586	1.4323751204075459	9.934895463811321
O	3.7873261326773586	6.087171216107546	12.80659186381132
O	1.4970567806773585	9.373640796107546	9.09727660381132
O	-1.6878298473226412	7.8228773161075456	7.634376813811319
O	-2.4144882573226414	4.696113576107546	5.62816420381132
O	-3.3588660073226415	5.328919096107546	2.04427207381132
O	-6.128383527322642	3.4804374561075457	0.2949389988113197
O	-7.251850547322642	3.1278683861075463	-3.2845031461886802
