71

O	-3.229264291341818	-1.109232454781818	-0.5048099064
O	-2.3572618983418177	-0.13427790678181817	-0.8445660573999999
O	-1.1897027433418175	-0.6099437147818182	-0.1494730444
O	-1.3581625048418176	-0.8872661647818182	1.2517598425999998
O	-4.534051481341818	1.564660275218182	1.3507017626
O	-5.115889081341818	1.2493068682181818	0.11753700660000001
O	-6.486035221341818	1.1052617762181818	0.6457572326000001
O	-6.337357411341817	0.08150584421818186	1.6447306226
O	-4.616657681341818	-1.5783851047818183	1.1310329366
O	-3.2043523813418178	-0.1311017147818182	2.6667920626
O	-2.5648227313418177	-1.0023304247818183	1.8576138026
O	-5.068644741341817	-0.5712981647818182	1.8630150926
O	-3.3126498813418177	-1.5095069847818183	0.8462280566
O	-4.226245311341818	0.41041261121818184	2.0823660226
O	-0.15422735134181753	-1.4378895847818183	-0.5976743583999999
O	-5.171897691341817	1.281750819218182	-1.2578709474
O	4.300666648658183	4.186160655218182	2.7557744826
O	4.021297728658182	3.811263415218182	6.5465065626
O	-3.6479229913418174	8.727514035218181	-8.5185755774
O	-1.3097265263418176	5.792636155218182	-7.920125607399999
O	2.1305823886581825	4.391536875218182	-8.4101215974
O	-2.6612395413418177	-2.1564531447818185	-10.7521728374
O	-5.963192441341818	-2.6496815747818183	-12.562708837399999
O	-7.736577331341818	-1.0936476747818182	-9.589071067399999
O	-5.836515641341817	2.168561145218182	-10.1985378374
O	-7.764571201341818	2.524417315218182	-13.4557982374
O	-4.890382881341818	-6.8791618847818174	-10.400317037399999
O	5.640765968658182	5.2509998952181824	-3.2638713974
O	4.280429998658183	8.720562945218182	-2.4719685474
O	1.3104699286581822	7.360701435218182	-0.5506741613999999
O	0.1740427086581824	8.259466525218182	2.9271848326
O	2.4561481986581826	7.9602630252181825	5.8549703726
O	-0.2671678613418176	6.714267215218182	8.1042655826
O	-3.5262569013418177	4.926316815218182	7.9237037826000005
O	-5.374305011341818	7.836057395218182	9.3409919226
O	0.28126915865818236	12.813780745218182	6.644784422600001
O	1.7683713286581826	13.056592945218183	3.1457590725999998
O	9.490557408658182	9.271900405218183	-2.3648401874
O	9.324563608658183	6.757954695218182	0.4626061636
O	10.857391108658183	3.2936691852181816	0.6304364816
O	9.579906008658183	-6.095190794781818	3.7610195425999997
O	-1.8416873503418176	-14.582437654781819	-8.3825960274
O	-1.3097047913418176	-12.746145754781818	-5.0506849174
O	1.6373046086581824	-11.022904154781818	0.9116513756000001
O	4.598472098658182	-9.313034354781818	2.6044427226
O	5.2892504686581825	-7.580232884781818	5.9403273126
O	6.222606958658182	-0.9631527047818181	7.5013924626
O	3.4474540786581827	-1.2039286147818182	4.8004221326000005
O	2.1718526986581823	0.49636191121818185	1.8110844925999998
O	-0.9153796713418176	2.7107311952181816	2.0961580526
O	-3.1702242913418175	4.999152465218182	0.09640676860000003
O	-1.4263835682418176	6.482321035218182	-2.8951770874
O	1.1657500886581822	3.700213035218182	-3.1845430874000002
O	-1.4102680456418175	1.404632946218182	-4.9683196374
O	0.007501098658182492	0.1446877972181818	-8.3501065474
O	0.5890709786581825	-2.9686388147818183	-4.5569543474
O	-2.884980731341818	-4.289432444781818	-4.668602807399999
O	-4.7771620713418175	-4.432063134781818	-1.4512372974
O	-4.765151861341818	-4.6800384047818175	2.3922124926
O	-6.800222981341817	-4.059677764781818	5.5742821426
O	-5.811099091341817	-0.6356629247818181	6.930828342600001
O	-2.0980969543418175	0.12473610921818179	6.692957352600001
O	0.6867932286581824	-1.263319684781818	8.9480355726
O	-1.7844515553418177	-2.9739804147818183	11.2712015626
O	-0.4253024613418177	-5.680365694781818	13.5790097626
O	-2.2288681723418176	-7.803923314781818	8.7523197126
O	-0.025688201341817596	-8.001760864781819	5.6228539926000005
O	0.03257095865818238	-6.083797074781818	2.3781127526
O	-1.1361270343418175	-8.021218884781819	-0.6323917553999999
O	0.4878663786581825	-7.775444344781818	-3.9391426474
O	-0.16429867134181753	-8.932164354781818	-7.4631631374
