16

O	13.573346634780787	-10.214153696031223	21.810521587513797
O	12.84543439755754	-9.551965622447549	20.884233556548192
O	11.76424007395747	-9.09440482740302	21.7174583710486
O	11.090807741687687	-10.104113811189439	22.489285228603887
O	12.368998955717817	-12.912356279746893	19.92257429436819
O	13.661522774564979	-12.43646041380953	19.674414301586744
O	14.324853462164649	-13.741999071941787	19.85504445314636
O	13.946969375389203	-14.109997489219024	21.192919602501863
O	13.661137810195996	-12.21458738842212	22.711356859069355
O	11.208239626728798	-12.520727579401168	22.130529647688117
O	11.581875701180635	-11.3508420244112	22.691395912414432
O	13.159302901098439	-13.224977739555253	22.01739191314159
O	12.915729315762809	-11.105539225276821	22.685420286468545
O	12.095734078375378	-12.961573294373714	21.295625236534253
O	11.620620427264726	-7.893294943342894	22.42123142570177
O	14.55920622891037	-11.556902782864615	19.11184927963978
