71

O	-3.2025000598870363	3.296126478272223	0.14682000815333363
O	0.5225752701129638	6.669178628272223	1.9030752801533337
O	0.4776820401129638	5.277316318272223	1.8265350101533335
O	-0.6355510208870363	4.639604328272222	2.227969630153334
O	-3.5879113598870362	4.975917288272223	-0.9137720598466663
O	-5.020141109887036	4.682904408272223	0.8360136831533336
O	-1.5590482718870362	5.4796165282722225	2.8036516301533334
O	-2.9495516898870364	5.477112668272222	2.666054710153334
O	-3.314512379887036	4.287660418272223	2.2093047301533337
O	-4.1410829598870365	3.8419806382722226	1.0739133021533336
O	-2.5293756498870366	4.340280018272223	-0.5119179458466664
O	-1.7060860658870363	5.392466938272222	-0.3180467408466664
O	-1.8983485768870363	6.775861478272223	-0.08910639384666635
O	-3.225178889887036	6.990904818272223	0.07785750215333365
O	-3.8927869798870365	6.375237458272223	-1.0055669098466664
O	-2.4006515198870364	3.2966661982722227	2.2568628701533333
O	-0.9864477698870363	3.350686388272223	2.1486367301533336
O	0.2945965301129636	-1.9581185517277773	-5.933773149846667
O	-3.344402599887036	-2.9263485217277774	-6.522934469846666
O	8.080517090112963	6.6549572882722225	-2.4745370498466666
O	9.671471590112965	3.2459830882722223	-2.3861752098466664
O	9.347254990112965	5.010094678272223	5.852621550153334
O	6.576596520112964	9.491882048272222	6.488655060153334
O	8.254324520112963	9.479795578272222	3.0398091901533335
O	7.537915920112964	4.755813468272223	10.753922060153332
O	6.435398220112964	-0.8883070917277773	-5.763894059846667
O	5.659626630112964	1.5432005912722224	-8.578325659846668
O	2.5691593201129637	2.9538384352722225	-6.784115419846666
O	-0.9064728958870363	3.2892881282722226	-8.207321809846666
O	-2.7489801498870365	0.35689171827222266	-9.528430549846666
O	-6.018406049887036	1.4698756352722224	-8.119292199846667
O	-7.421157939887037	3.5372927482722227	-5.385642149846666
O	-9.139637849887038	5.7471426982722225	-7.927843999846667
O	-3.6269622898870364	3.9507264282722225	-13.420059539846667
O	0.1682044101129636	3.8971398582722223	-13.120880639846666
O	7.594084400112963	-2.717384771727777	-10.972616539846667
O	4.607819860112964	-4.463374711727777	-9.421726749846666
O	4.555850060112964	-7.363811921727778	-6.984768329846666
O	1.8668943801129636	-8.904801551727779	-4.749791729846667
O	-0.06445365988703622	-11.127382851727779	1.0082986401533336
O	-6.354872049887036	3.9646391882722227	14.699211360153333
O	3.2892826201129637	-2.4139664117277775	13.245279860153333
O	1.7612740701129637	-5.455477161727777	11.647113860153333
O	-0.9864353118870364	-5.727511211727777	9.036542050153333
O	-1.2554781199870364	-7.920178881727778	5.954684460153334
O	-3.839114419887036	-8.653161751727778	3.2914409601533334
O	-4.057368479887036	-7.062888051727778	-3.3036608098466664
O	-2.6198538398870364	-4.054279061727777	-1.3971429698466664
O	-0.029350049887036267	-1.3327535617277773	-1.4799509998466664
O	-1.2971709138870362	2.0790811825722226	-2.5951806398466664
O	-0.039763919887036314	5.6054878282722225	-3.3153580998466663
O	3.5122791501129633	5.574761318272222	-4.340689249846667
O	4.2725785401129635	2.2690655622722224	-2.6407063798466663
O	5.044652480112964	3.8037595282722227	0.6594056681533336
O	8.421081020112965	3.0688419482722225	2.1717669401533337
O	4.779010490112964	0.04039296827222261	3.645243180153334
O	3.399631600112964	2.5557215862722225	6.147292820153334
O	-0.2538324638870363	3.2492605582722227	6.028035470153334
O	-3.8574251698870365	2.2384397882722227	5.201195990153334
O	-7.4652211798870365	3.3368665682722227	4.637041790153333
O	-8.146397059887036	3.4401850682722226	0.8223338251533336
O	-6.281870099887036	0.7812436482722225	-1.1222702498466663
O	-7.422428109887036	-2.763909441727777	-1.4176710598466664
O	-10.730545779887038	-2.1490402917277773	0.3432225888733336
O	-12.710523909887037	-5.130230201727778	1.6686874601533337
O	-9.183189449887037	-3.036018941727777	5.494550250153333
O	-5.519330479887036	-4.114458561727777	5.663390350153334
O	-2.2745630198870366	-2.4360642517277773	4.726691950153334
O	-0.1460850698870364	-1.5908784417277773	7.7301437101533335
O	3.5728554701129633	-2.1023530617277775	7.858744930153334
O	6.4689324501129635	-1.0989698717277776	10.079433740153334
