76

O	-3.803163923416666	-3.518125780689583	-3.231727147479167
O	-4.112790493416666	-4.706914850689583	-2.436415077479167
O	-2.292114823416666	-3.972412980689583	-3.4369724074791668
O	-1.7804206494166661	-3.898959570689583	-2.024877717479167
O	-1.369500877416666	-2.4228899206895833	-1.9454126774791665
O	-2.2311276734166663	-1.624811024689583	-2.882733707479167
O	-3.620682693416666	-2.202815450689583	-2.5709357074791668
O	0.07552675658333396	-2.476222070689583	-2.3088926174791666
O	0.775848036583334	-2.424413060689583	-1.0543608074791666
O	0.503017216583334	-3.453736370689583	-0.13182137247916664
O	0.4689902265833339	-4.631645940689583	-0.6029748604791667
O	0.9248212365833339	-3.1862162906895835	1.2852657835208334
O	0.3934355865833339	-4.294470690689583	2.0304149825208335
O	2.416843686583334	-3.2681163306895833	1.3134863925208333
O	2.664897646583334	-4.143311130689583	2.5318417325208333
O	1.513577296583334	-5.104691270689583	2.4244792525208334
O	-1.0091426404166661	-4.564290700689583	2.082912952520833
O	-1.746999395416666	-6.870013930689582	1.7639042225208335
O	-1.846253450416666	-3.9845817406895834	1.3622959725208335
O	-0.7256485534166661	-7.859010410689583	1.5282523725208335
O	-1.3693888354166661	-5.868587450689583	2.7248779025208334
O	-2.391685063416666	-5.590179640689583	3.775170732520833
O	-1.7167163494166662	-5.002762870689583	4.948928692520833
O	-0.4211875004166661	-5.429392150689583	5.187609212520833
O	0.2637923765833339	-4.920140240689583	6.281539052520833
O	-0.13947944741666607	-3.7069931106895835	6.823604752520833
O	-1.2689534904166662	-3.1283387006895835	6.291310662520833
O	-1.922842334416666	-3.647920280689583	5.177275792520833
O	5.903482916583334	1.1579970793104168	-7.511968647479167
O	4.291886636583334	4.411822969310417	-8.481591767479166
O	4.932815186583334	5.315864459310417	-0.11546210947916663
O	7.402714276583334	4.306375329310417	2.590141252520833
O	6.461563546583334	0.6825444493104168	1.9908012925208334
O	7.746306226583334	0.9485181993104167	-1.5868346674791667
O	11.236981106583334	1.3678578693104169	-0.14683299147916667
O	11.173027206583335	-0.24710305368958319	3.3030216225208333
O	9.293155806583334	-3.293353090689583	4.537011462520833
O	8.748910326583333	-8.480850150689584	6.983170942520833
O	9.562436806583333	-9.101112210689584	3.3698596425208334
O	13.219593506583333	-8.122345770689583	3.5772932325208333
O	12.566461506583334	-4.993192900689583	1.5404685025208333
O	5.521177196583334	-1.0142169816895832	9.215596292520834
O	1.3585200965833342	-2.779261660689583	12.639822352520834
O	-0.7041306514166661	-0.8560671555895832	10.154966152520833
O	1.5020965265833341	1.1350286193104169	7.770258122520834
O	0.711300946583334	4.356640159310417	9.634464452520834
O	2.545753276583334	7.344973969310417	8.089558592520834
O	3.247337826583334	5.473431639310417	4.845418302520833
O	-0.7237302214166661	3.5001473593104167	-12.134711447479166
O	0.8335191065833341	0.6446895393104167	-14.092068347479167
O	-0.15668816741666602	-1.976105880689583	-11.557689447479166
O	-6.124738313416666	-9.352450690689583	-8.154309747479166
O	-6.557225133416666	-3.217328900689583	10.818657052520834
O	-5.120580423416666	7.360285989310417	6.320161972520833
O	-8.333320913416667	7.668878729310417	4.357965912520833
O	-10.144972763416666	5.092188469310417	2.2182433825208334
O	-11.756923093416667	5.307173129310417	-1.2246803674791666
O	-5.529311373416666	0.18333611931041682	-7.021238977479166
O	-3.594319963416666	-3.1366503806895834	-6.996742407479167
O	0.007752656583333906	-4.551984520689583	-6.958563757479167
O	2.283541826583334	-2.153618550689583	-8.733315387479166
O	0.11249242658333403	0.9047099893104168	-8.036060827479165
O	1.548910696583334	1.3816408793104165	-4.584013917479167
O	3.075944086583334	4.7799143893104175	-3.919067837479167
O	-1.693354932416666	4.484293499310417	-2.6186242374791666
O	-0.816669310416666	2.6751584193104168	0.6345810255208333
O	-2.6116732034166663	-0.5930426546895833	1.2236484755208334
O	-5.656750743416666	-2.8028015506895834	0.9849044085208334
O	-6.993651583416666	-6.373767170689583	1.1962855355208333
O	-6.945366873416666	-7.964294350689583	-2.2157479274791667
O	-7.922769473416666	-5.630854150689583	-5.040139227479167
O	-13.213674893416666	-3.6191854306895834	0.9090507195208333
O	-11.688945493416666	-0.17516373468958324	0.16859897052083336
O	-8.227476353416666	0.9927924193104168	-0.8841129874791667
O	-6.3742632334166665	2.903537029310417	1.7999740625208334
O	-4.397144613416666	6.0549502393104175	1.1398532975208333
