93

O	1.345055282084746	-3.242472904067796	3.9933804025762707
O	0.3328940831847459	-0.872888884067796	4.201423842576271
O	0.8591644810847459	-1.9407971840677962	2.2728590625762712
O	-0.39574824891525406	-2.755389764067796	2.1351377625762713
O	1.6335970770847459	-4.118316314067796	2.742269492576271
O	-1.0942038729152541	-1.032003884067796	3.9864792525762716
O	-1.9555106029152542	-1.312730874067796	5.025917672576271
O	0.2456110880847459	-4.169404014067796	2.096243152576271
O	0.5367001590847459	-0.804420814067796	5.50316363257627
O	0.22086111608474593	-4.433364834067796	0.646574343576271
O	1.126641654084746	-1.9256533640677962	3.671809132576271
O	2.7959086670847455	-3.033614294067796	-1.8637850774237288
O	5.070062897084746	-2.8178723040677958	-2.522916247423729
O	7.408619147084746	-0.215611991067796	-2.961793667423729
O	4.155238417084746	-2.7027584340677957	-1.396666557423729
O	8.856640767084746	-3.0617225640677956	-1.0148846484237288
O	8.226188907084746	-1.827951624067796	-0.3939374189237289
O	8.758266407084745	-0.273370912067796	-0.8821396294237289
O	6.4046929670847454	-2.835374924067796	-1.875170557423729
O	6.601095127084745	0.397332717932204	-3.881063287423729
O	8.419672437084746	-2.289049484067796	1.0445786725762711
O	3.1519106770847456	-4.120442104067796	-2.839945717423729
O	6.572316387084745	1.781127615932204	-3.910914507423729
O	6.562900527084746	-2.001711854067796	-0.7324686514237289
O	5.845340207084746	-2.596773454067796	0.351339154576271
O	7.164879527084746	2.470722485932204	-2.8855025674237287
O	4.417690847084746	-2.318265164067796	-0.07770204142372894
O	8.041202557084747	1.778768965932204	-2.070864897423729
O	4.629876087084746	-4.182879004067796	-3.042764437423729
O	7.779072327084745	0.43505945193220397	-1.7838226174237288
O	2.035056787084746	-3.7593941040677956	-0.7858109354237289
O	2.7913031270847455	-4.471109204067796	-0.04506460142372892
O	0.7793913890847459	-3.4521270240677957	-0.23953133442372893
O	4.107453867084746	-1.1195971340677962	0.24354260457627103
O	-6.235336052915255	-9.442547544067796	-1.5574911274237289
O	-9.224686132915254	-7.376916884067795	-0.610138897423729
O	-5.739851622915254	-2.488962354067796	-6.507955977423729
O	-3.864122412915254	-3.0193526940677957	-9.76626114742373
O	-0.983369292915254	-4.511636794067796	-7.7705762674237295
O	-3.319751832915254	-7.2979300640677955	-6.5716601874237295
O	-3.4378073629152537	-8.546932024067797	-10.14674302742373
O	-0.3013638539152541	-7.2706209540677955	-11.88209140742373
O	3.197186097084746	-6.784299244067796	-10.51322050742373
O	8.875738627084745	-7.538969364067796	-10.50560660742373
O	7.4408580270847455	-10.397398414067796	-8.486964537423729
O	4.342323307084746	-0.48683225206779607	-11.17353160742373
O	8.239002487084747	3.378848535932204	-9.75308610742373
O	5.662369727084745	4.196891435932204	-7.151469067423729
O	2.4144732970847462	2.3182024659322042	-7.814190167423729
O	0.8188989760847459	5.488028615932204	-9.230644967423729
O	-2.782750242915254	4.830159265932204	-10.36123120742373
O	-3.0140445229152544	1.575073855932204	-8.401076177423729
O	-9.683947142915255	-6.663744534067796	5.583238252576271
O	-8.550381892915254	-10.202928914067797	6.386064272576271
O	-4.865804632915254	-9.324156444067796	6.222505392576271
O	-2.2094147529152544	-9.959747314067796	8.81237012257627
O	3.936596587084746	-6.998623714067796	10.441155492576272
O	5.820220957084746	-10.048401814067796	11.56311799257627
O	-6.1964312529152545	11.235901185932203	6.753870882576271
O	8.928528347084745	8.213549775932204	2.7160955925762713
O	11.486814757084746	8.422927785932202	-0.014189291423728934
O	8.916719107084745	7.157474805932204	-2.557168247423729
O	7.7032486070847455	9.824795265932202	-4.9703953774237295
O	4.086536617084746	10.459043885932203	-3.9530365174237287
O	1.476604657084746	11.640933085932204	-6.50105698742373
O	-2.4454865829152537	8.782340885932204	-3.575572747423729
O	-3.2492570229152538	9.891979665932203	-0.07008170442372891
O	-1.9601422929152539	8.605327505932204	3.2542745225762713
O	-3.7646783529152543	7.835154975932205	6.513980632576271
O	-2.7733291329152543	6.747470435932204	10.005219292576271
O	-2.795367832915254	0.15757475093220397	9.742271592576271
O	-3.5802576829152537	-2.1434395140677958	6.878866202576271
O	-1.0353148329152542	-4.924633624067796	6.267928532576271
O	-0.3392149739152541	-7.838160644067796	3.9618399225762713
O	-3.5724482529152537	-9.356830954067796	2.734272632576271
O	-5.497395312915255	-6.0701069440677955	3.101085592576271
O	-4.190265112915254	-4.767396674067796	-0.19996048842372893
O	-6.983303152915254	-3.749786324067796	-2.619454237423729
O	-5.3495407929152545	-0.013280643067796027	0.16639064657627106
O	-2.337471412915254	0.479359226932204	-2.073278357423729
O	1.061626355084746	0.42023912493220394	-0.3011275504237289
O	3.2205716070847457	0.9747815289322039	2.735494262576271
O	6.497360587084746	0.396752034932204	4.53689777257627
O	6.063192197084746	-2.371465384067796	7.075502062576271
O	2.6798411770847457	-2.1897024840677957	8.905613202576271
O	5.3331376570847455	1.4592226659322038	12.09930969257627
O	6.409987587084745	7.5524553959322045	11.575314592576271
O	5.053144997084746	5.616206695932204	8.56828331257627
O	1.561635627084746	5.881392435932204	7.015845822576271
O	-0.5514007159152541	3.623394275932204	4.8436141225762706
O	-0.9254149329152541	4.833831115932204	1.288368092576271
O	-4.211490942915255	4.688153735932204	-0.5628460384237289
O	-5.255775632915254	5.097338085932204	-4.146683967423729
