19

O	17.393498897929003	-11.489262568872103	17.66440600485855
O	16.866718002946776	-10.209370173144707	17.902124448112563
O	17.923084879426774	-11.65164157918324	16.27529202704818
O	17.99870952105969	-13.112151116545611	15.89169444472228
O	18.252395756833796	-13.847453321585046	17.174956515463066
O	16.993788387967637	-13.841481499941608	18.04355843748784
O	16.328461400557995	-12.468533017160645	18.070629665758503
O	12.507852882077692	-11.02251133937822	22.530398312053894
O	10.881366053260226	-12.320325528704823	23.91000487244434
O	12.36881516241751	-9.95475470808006	21.50414117100683
O	10.816366445679616	-10.109254757917519	24.19332214939342
O	13.750445482770882	-9.653185536385568	21.040514781380747
O	15.53269773956206	-10.775185488309344	19.729133706443033
O	14.71382088788182	-10.773292392629884	20.91971742854776
O	14.642590568909338	-12.799696288789569	19.925114643575146
O	13.756855421560761	-11.912138706310134	20.58240331326075
O	13.035003983675349	-12.244493697049325	21.84168110864251
O	11.308415731945093	-11.115563728623036	23.348711803645568
O	15.782602292072553	-12.137442722450025	19.412704152121226
