79

O	5.651925196736842	-4.6745316138614035	-1.7284582476491233
O	-1.5545189232631578	-2.3595969738614033	2.0143367623508768
O	7.397824876736842	-3.2270051538614033	-0.9396695876491232
O	5.340820426736842	-1.1308227038614036	-2.5061709776491234
O	4.769037546736842	0.8824119661385964	-3.639253457649123
O	6.249450536736843	0.6015987051385965	-3.867792847649123
O	6.355169336736843	-0.8416890438614035	-3.4804264776491234
O	3.122013876736842	-0.9409974138614037	-3.1763427076491233
O	4.291498556736842	-0.15682405486140358	-2.6666439476491233
O	5.196060746736842	-2.2665071838614033	-1.6666917876491232
O	6.181306376736843	-3.3443185638614032	-1.7759791976491233
O	7.893341266736843	-1.7882427138614037	-1.0239360566491231
O	3.2736181167368423	-1.7150941338614036	-4.139355217649124
O	1.905947076736842	-0.7461652438614036	-2.494433937649123
O	0.7599801397368422	-1.5790743538614036	-2.7276117176491232
O	0.28560974273684225	-2.4205284838614034	-1.6256242076491232
O	0.26738918173684223	-3.778052183861403	-1.7891037276491233
O	0.27894166773684226	-4.595750303861404	-0.6652148222491232
O	-0.44575487726315777	-4.225403443861404	0.45787140235087675
O	-0.7819613002631578	-2.9045203838614033	0.5510669523508769
O	-0.41963739226315777	-2.0402228438614034	-0.48755226404912316
O	4.1148382067368425	-2.5470942138614032	-1.0637410866491233
O	-3.729049523263158	4.645136806138596	-7.413592417649123
O	-6.430135533263157	5.478694636138596	-4.9533663676491235
O	0.39409188373684223	8.057020786138597	-0.7575385676491232
O	3.726412826736842	9.657143636138596	-1.630339957649123
O	4.719346036736843	6.4349896861385965	-3.3942765676491233
O	1.8275818067368421	6.925449906138597	-5.837226637649123
O	3.640790806736842	9.975706696138596	-7.173394727649123
O	7.325058666736843	9.479208816138597	-6.364635157649123
O	9.414441556736842	6.336517976138596	-6.265766767649123
O	11.269735786736842	2.413628086138597	-10.242934447649123
O	11.759575486736841	5.723525056138596	-12.091491847649124
O	8.399740256736841	6.9850837661385965	-10.865944647649123
O	10.813499986736842	1.7650945161385965	4.429984742350877
O	8.329796686736842	4.261358136138596	2.974564332350877
O	8.208802486736841	6.191369176138596	6.266166622350877
O	5.8572175967368425	9.188987276138596	5.998773122350877
O	4.1588909067368425	7.844369096138596	2.8689983023508767
O	-10.311804013263158	-0.11866290886140354	2.984344892350877
O	-11.734862513263158	0.5993070481385965	-0.4814706096491232
O	-10.272429513263159	0.6198447171385965	-3.963948117649123
O	-10.257542613263158	-0.5187687108614036	-7.588531897649124
O	-7.081577283263157	-2.5374915538614036	-7.210928837649123
O	-6.476740183263157	-6.152825143861404	-8.122879537649123
O	-2.0032907932631576	-11.130178883861404	-5.9217951476491235
O	-1.5092970432631576	-13.026838583861403	-9.142223627649123
O	11.191799986736841	-3.9736012838614037	7.159376802350877
O	4.051163396736842	6.703433126138596	11.311006752350877
O	2.702532196736842	3.3093254961385967	10.143824252350877
O	0.17192316073684225	0.8509259361385964	11.472535852350877
O	-0.8265328782631578	-2.5687827338614033	10.152006852350876
O	-4.230002263263158	-4.202019253861404	9.707477052350876
O	-5.538699473263158	-7.582234573861403	8.595547462350877
O	-6.214518703263157	-7.059616173861404	2.039003812350877
O	-5.383486653263158	-4.152931103861404	-0.21971014364912317
O	-3.4406322832631577	-4.995616163861404	-3.393972867649123
O	-1.8789731432631576	-3.3355066838614036	-6.499556907649123
O	-4.034148333263158	-0.4025892508614036	-7.539261027649123
O	-5.375411903263157	0.22492291223859642	-4.010191807649123
O	-2.2586387332631577	2.1464655261385963	-3.0156572676491233
O	-2.9955283232631578	5.655355836138596	-1.7164552276491232
O	-6.6314950632631575	4.976705816138596	-0.9612102166491232
O	-3.517608663263158	5.505008616138596	3.7732431423508768
O	-2.8159241332631577	2.2537888661385965	1.8754618223508768
O	1.0003055267368421	2.2574560661385967	1.851610332350877
O	2.711491126736842	-1.0804036938614037	1.3870016623508767
O	2.7453307267368423	-4.8021750338614035	1.8867997823508769
O	4.373447526736842	-8.064224053861404	0.8771468423508768
O	2.196199696736842	-9.734894303861404	-1.706537077649123
O	-1.5421269932631576	-9.435009343861404	-1.0450754646491232
O	-3.6551103132631577	-11.339195883861404	1.4539571423508768
O	-0.7680777162631578	-13.659854983861404	2.358933192350877
O	1.4945701367368422	-10.802667383861404	6.418252222350877
O	-0.42519104426315774	-7.551282453861404	7.091614752350877
O	-1.157304253263158	-4.452519143861404	5.030265332350877
O	0.6680148727368422	-1.3712140938614037	6.204783552350877
O	-0.9736847872631578	2.0428311361385965	6.418152532350877
O	0.31806353873684223	5.542448226138596	6.799080732350877
