86

O	0.6582659230500001	-4.321425570562501	2.0315134962770824
O	0.67477150205	-0.32120571356250077	1.8965015612770826
O	0.32687178705	-3.1758278805625006	1.2333265331770826
O	2.0483555520500003	-6.6422072605625	5.665031256277082
O	0.31727086605	-3.533179860562501	7.215371156277082
O	1.0527635820499999	-1.9417987305625009	1.3430545732770827
O	-2.28326296795	-5.477520340562501	6.343671536277082
O	4.44059386205	-5.353537910562501	6.425975016277082
O	2.36099114205	-2.0084088805625004	1.8257540872770825
O	2.8048241220500003	-3.3780978005625006	1.7305716882770825
O	2.0156480820500002	-4.5011308305625	2.0244763542770827
O	3.9871365120499997	-1.0227463195625006	3.3874007362770824
O	1.6375845120499999	-0.27221230056250073	3.3611967762770822
O	2.65248554205	-0.9923936485625007	2.7259127162770826
O	1.2963097420499998	-0.42225297956250074	4.832735016277082
O	4.95547444205	-3.429912680562501	3.4461051162770824
O	2.21759503205	-0.9554214945625008	5.693981336277083
O	4.32250056205	-2.3214288205625007	4.0513746562770825
O	1.9469220720499998	-1.7633780705625008	6.7755499062770825
O	5.1601090120499995	-2.0762618305625007	5.186004256277083
O	0.66909438705	-2.2001121205625007	6.9647748362770825
O	0.8968865820499999	-7.351565050562501	3.8992014762770824
O	-0.31872335895	-1.4891520145625008	6.347682026277083
O	5.16015005205	-4.446287460562501	5.626195716277082
O	0.011681112050000025	-0.6619772843625007	5.272571266277082
O	5.275592812049999	-4.531335600562501	4.244054786277083
O	-2.2653763579499997	-6.672143500562501	5.500285976277082
O	2.2112879320500003	-7.386620560562501	3.5205431762770827
O	-0.1344346124	-4.219212150562501	6.002079916277082
O	3.1053467020500003	-4.848142210562501	6.674681786277082
O	2.89974478205	-6.8651204405625	4.626738926277082
O	1.00744382205	-7.442564030562501	5.299866276277083
O	-2.66761354795	-4.4053177105625005	5.472904116277082
O	-1.87535396795	-4.7669849905625	4.218546716277083
O	-2.23095817795	-6.210706040562501	4.071259366277083
O	5.12727140205	-3.131720200562501	6.103700256277082
O	2.3203669120500003	-6.0692791005625	7.000569966277082
O	-0.95466934995	-5.2743562805625	6.784131826277083
O	6.54308599205	-3.657665070562501	-8.025172313722917
O	4.165514132049999	-0.7390874235625008	-7.5995602537229185
O	-5.55406573795	-4.9352672105625	-6.280024443722918
O	-2.92999636795	-5.666065530562501	-3.5970495037229178
O	-0.18210643434999998	-4.866323280562501	-6.127347893722917
O	-1.2672508979500001	-7.954175470562501	-8.061167933722917
O	-3.00722148795	-10.2290452805625	-5.545094683722918
O	-2.25315482795	-10.744430820562501	-1.8562786137229172
O	-1.27786842795	-14.104041920562501	2.5947309762770825
O	2.12399187205	-13.2215291205625	1.1238815217770826
O	1.8257430720499999	-15.5876861205625	-1.8202285437229173
O	1.44548903205	-12.6640603205625	-4.185009553722917
O	-0.45342016895000004	-13.5678829205625	-7.368211053722918
O	-7.70152714795	-8.920702600562501	1.1050456972770826
O	-9.620280387949999	-8.066479120562501	6.4060422462770825
O	-8.965475987949999	-4.486342250562501	5.455332286277082
O	-8.231558537949999	-4.204833250562501	1.7333453792770825
O	-11.72365552795	-2.9718165405625006	0.9847146062770826
O	-8.402838737949999	-2.259404020562501	-3.398307293722918
O	5.633004372049999	7.4947643394374985	-7.047551063722917
O	9.07120026205	5.8890745794375	-7.014384353722917
O	8.62870351205	4.383941979437499	-3.5939763437229173
O	10.883093472050001	4.851881779437499	-0.6459143737229174
O	10.022810372050001	4.586196599437499	6.317314926277082
O	13.387329872050001	3.1640050494374994	7.298396396277083
O	-11.528247827949999	4.311997679437499	1.2777330854770825
O	-5.12241937795	12.0518176794375	3.296762446277082
O	-2.1518039879499997	13.646035479437499	5.026862456277082
O	3.07427122205	10.3009128794375	2.6901215862770824
O	3.2200669520500003	7.3448969494375	0.36585562627708257
O	5.390300552049999	4.325093649437499	1.3606999162770825
O	6.728203962049999	1.2010603594374993	-0.02365309372291735
O	6.80578670205	1.1337618294374991	-3.7491384037229176
O	4.1503981220499995	3.850544699437499	-4.078801273722918
O	1.29406837205	1.4633974294374994	-3.835090313722918
O	-1.17007014795	1.4974901594374992	-6.705289423722918
O	-2.44238946795	4.414842029437499	-2.9190564537229173
O	-3.75726544795	1.4723494694374994	-0.8765997137229176
O	-2.58857469795	1.3158328794374992	2.586050176277083
O	-1.1540321979500001	2.926942319437499	5.800468556277083
O	0.75888060105	2.1452879494374995	9.056993206277083
O	4.45579099205	3.0597147094374995	8.622090636277083
O	5.0574223820499995	6.022890829437499	6.421863176277082
O	4.04849275205	8.792146029437498	11.062941786277083
O	-2.8042224879499997	8.9480626894375	7.471985426277082
O	-2.37695640795	7.281353559437499	4.100362536277083
O	-5.41401059795	5.4049435194374995	2.8907651362770825
O	-6.63323524795	5.565599169437499	-0.6974528937229174
