43

O	17.053777883714776	-14.90693301090462	22.77876394048461
O	16.58453807441285	-13.735916040184923	21.892370094812637
O	15.846778060554714	-15.537773950088441	23.39594209475796
O	17.27653882910816	-15.973665545095376	21.70156521538615
O	17.285441345039406	-13.566882690758856	20.60710984167436
O	16.35787029964156	-12.806670529691985	22.728126338214462
O	16.7782847494716	-16.953973724632306	23.88072789005383
O	15.901680857775807	-16.00802372560758	21.186053203948845
O	18.34181426617602	-12.686887204836072	21.021426502882868
O	17.9854573554221	-14.673792187912872	19.876153815455655
O	18.041365819720067	-16.25760469123239	24.911826739998368
O	16.166555125175893	-17.801543219265593	24.854572229274215
O	17.357614440226502	-17.81642073537708	22.876255309215658
O	15.065917048083518	-14.949048814557491	21.086490270859116
O	15.811338524920908	-16.93930914777375	20.500768016054153
O	18.840852983869578	-13.614893659193193	22.2506174275585
O	17.269105237704533	-15.025317652984047	18.596000950010133
O	17.721246204303302	-15.040445134354888	25.441523575498724
O	19.26872551754871	-16.338964987701782	24.400785019571792
O	14.256835329479724	-14.278255325874497	20.163009900640105
O	19.71508926619014	-12.847350827251885	22.951400658753798
O	19.55836164655967	-14.63887747324313	21.64499349187752
O	16.308763942588357	-14.57637719705643	17.964268341870625
O	17.46003776965547	-16.38242486352589	18.219888028394315
O	18.702683216841077	-14.145874134063233	25.760177254129687
O	20.241759394526177	-15.73885794946457	25.12158965651139
O	13.493723307556712	-13.205780345124406	20.77215118739789
O	21.131150447137294	-13.081856340148097	22.986017309721884
O	20.803201361530476	-15.120858893855752	22.006377419404608
O	19.971742845882293	-14.564121771259765	25.699658474662442
O	18.40928645221145	-12.989232347013267	26.437828445764346
O	13.104342737841232	-13.273233413055081	22.193030992364875
O	14.058792419543007	-11.781107542931466	20.777645153311827
O	21.6337575081118	-14.33048894114248	22.74810662936667
O	20.891541932997807	-13.596376043416265	25.820177494973237
O	19.579335345748184	-12.458509632131134	27.09233897692322
O	12.539422294756843	-11.941061465630948	22.514316803002743
O	12.967683629536053	-10.982985964798736	20.18657195773179
O	20.619890444666915	-12.347832576697979	26.217508626701846
O	11.944322680527941	-11.334592616910056	21.2837472250169
O	11.508899700760155	-11.85316535806631	23.54070684829915
O	10.7528276033451	-12.887387835285072	23.27506171981021
O	10.503581588250968	-10.803884146879	23.552434408799193
