85

O	-1.9143187092307699	1.6087305635826925	-0.759335243673077
O	-1.6745507102307697	2.957348195582693	-0.356895372673077
O	-1.8914400232307698	5.146695755582693	-1.633514478673077
O	-1.9208355832307697	2.8360516055826928	5.743649021326923
O	-0.31407675723076967	3.6710449455826923	-2.585177928673077
O	-0.8808891872307698	3.1281044555826925	0.897238301326923
O	0.09916477276923041	2.0531612105826924	6.403433001326923
O	-4.167632247230769	1.9964027175826926	-0.907995759673077
O	-1.8422349212307698	2.8921583555826924	2.058888661326923
O	-4.53024958723077	-0.7723014144173075	-1.377057655673077
O	-3.95149864723077	-0.7448669444173075	0.903187041326923
O	-1.0164003972307698	3.1242205855826928	3.286258671326923
O	-6.72469482723077	-0.17540171441730745	1.145838171326923
O	-8.87096486723077	-0.7634394044173074	0.678134081326923
O	-0.7276593872307697	1.8466228135826925	4.002609361326923
O	-0.9300187272307698	2.0831943055826923	5.443403491326923
O	-3.3673880572307695	-0.07270044441730739	-1.8466558386730771
O	-3.20277564723077	1.2674891542826925	-1.2171326196730772
O	-3.5769908372307695	-0.06504513441730753	-3.330543928673077
O	-4.975623307230769	-0.4544018244173076	-3.579787938673077
O	-5.39030978723077	-1.0497493144173073	-2.488228708673077
O	-4.75685014723077	-1.0465466044173073	0.0018444873269229944
O	-6.37858951723077	-2.613762574417308	0.8509376213269231
O	-6.17011012723077	-1.2300871744173076	0.365923218326923
O	-8.08258819723077	0.1566017755826925	0.973218431326923
O	-8.631438507230769	1.5420926905826926	0.9811002513269229
O	-5.81884006723077	-5.0029650844173075	-1.939382428673077
O	-4.932643627230769	-5.904466284417308	-1.411552438673077
O	-4.57302405723077	-5.772724584417308	-0.09662068467307705
O	-4.80169224723077	-4.562694854417308	0.5530584713269229
O	-5.66725733723077	-3.607223114417308	0.02376366132692298
O	-6.32576858723077	-4.017568804417308	-1.132357076673077
O	-1.1007101572307698	3.9175823355826926	-1.421703109673077
O	3.3947529327692303	7.709956135582693	-4.892058788673077
O	6.754351242769229	7.335701875582692	-3.236757488673077
O	5.23402219276923	-0.6150942644173074	-5.608911078673077
O	3.5584288427692305	-2.344416594417307	-8.554046328673078
O	0.23723458276923015	-0.9005279844173073	-7.405794838673077
O	1.5781368827692304	2.6230221955826925	-7.933912068673077
O	1.6950321327692301	1.8545692595826924	-11.676036178673076
O	-0.8752148672307698	-0.8959771144173077	-12.267764078673077
O	-4.20845655723077	-1.5346585544173077	-10.586402078673077
O	-9.88434496723077	-2.460505554417307	-10.477107118673077
O	-9.42074614723077	1.2714337752826925	-10.403616578673077
O	-8.43031638723077	1.6078105545826924	-14.057031578673078
O	-4.85818372723077	2.4402230255826924	-13.108440278673077
O	-3.5259550172307694	-7.3486318744173085	-7.929113438673077
O	-6.37375719723077	-10.859805594417306	-4.503957028673077
O	-3.8808615572307694	-9.535571594417307	-2.026309628673077
O	-1.1893311592307696	-7.464703384417308	-3.760822278673077
O	1.3098787727692303	-10.319071194417306	-3.463189068673077
O	4.67936583276923	-9.363712994417307	-5.011869888673077
O	3.8625129327692305	-5.640174414417308	-4.978086818673077
O	6.8491093227692295	9.991831865582693	2.444069071326923
O	4.72397385276923	12.972759905582693	1.418726571326923
O	1.4438494227692305	11.159214345582694	1.959427551326923
O	-1.5220713042307699	12.258397005582694	4.010929701326923
O	-6.747399307230769	8.933447715582693	7.308970251326923
O	-6.521659447230769	-10.685194794417306	3.6453351813269226
O	4.91345953276923	-9.280887094417308	2.835944871326923
O	5.68755435276923	-8.199920844417306	6.360414451326923
O	3.79260154276923	-5.849214234417308	8.658491691326923
O	5.00084732276923	-3.0734434444173075	10.959760021326924
O	3.4563814827692303	-0.7053363644173074	13.482371021326923
O	2.0257468327692303	5.1703143455826925	6.215260451326923
O	-1.0846681872307697	6.501355025582693	4.4394745413269225
O	-2.35283114223077	7.580598265582692	1.000391791326923
O	0.5030970027692301	9.078630825582692	-0.989958456673077
O	3.2020912927692304	7.104133955582692	0.878215771326923
O	2.64151240276923	4.019415405582692	-1.2333026116730772
O	5.72329010276923	2.7269361755826926	-2.991940728673077
O	4.943780272769231	0.6054198325826925	1.4143669013269229
O	2.2569290327692304	-1.6821771244173076	-0.06061841967307702
O	-1.1135007572307698	-1.6262828444173076	1.650695121326923
O	-3.19873718723077	-1.2635618944173077	4.778724231326923
O	-6.71470311723077	-0.8018887644173074	6.1501522013269225
O	-7.21526903723077	2.8637740155826927	6.857069051326923
O	-4.199048017230769	4.592942735582692	8.388010241326922
O	-5.938821087230769	2.448833765582693	13.124014821326924
O	-4.23010148723077	-2.6626984344173072	12.181292221326922
O	-0.6714522572307697	-2.7032081044173077	10.753845321326923
O	0.9216997327692305	-1.3645292744173074	7.593790721326924
O	1.9431417027692302	-4.013083264417308	5.118367381326923
O	5.213732272769231	-3.9074442444173076	3.237996151326923
O	6.610916092769231	-5.749000164417308	0.2909395443269229
