87

O	-5.330312676173076	2.2566540152942314	-5.052337987096154
O	-4.680779416173076	0.3705072732942314	-2.0759175252961537
O	-3.400066536173076	0.08136244529423142	-2.635380091096154
O	-2.406718834873076	0.7711442482942314	-2.230522812096154
O	-4.488446956173076	0.31234613229423136	-0.5538182870961539
O	-3.706019426173076	1.3222048392942314	0.15309975290384603
O	-3.620196066173076	1.6721846132942315	1.594734442903846
O	-2.968815831173076	2.9009303852942314	1.8731424329038462
O	-3.092292273173076	3.7761454952942315	2.7829894929038463
O	-3.9353289161730762	4.936488685294231	2.6905689529038463
O	-1.913256555173076	4.054325185294232	3.5663406029038462
O	-4.508725056173076	3.2511526052942314	-4.357819367096154
O	-5.670497926173076	1.3300241462942315	-2.249822534096154
O	-7.460252626173076	1.6523841762942313	-4.072486167096153
O	-3.104256892173076	2.8180188252942315	-4.625820987096153
O	-3.094885624173076	-1.3386114947057686	-2.707976745096154
O	-7.355295246173076	-0.5452010147057686	-2.850902553096154
O	-2.496132071173076	1.6819461702942313	-5.3462209070961535
O	-3.647598406173076	0.8598717222942314	-5.866515647096154
O	-3.538303386173076	-0.28482487470576867	-6.609075447096154
O	-4.596260486173076	-1.1445160147057685	-6.443486927096154
O	-5.3998569561730765	-1.2068931447057687	-5.340194807096154
O	-5.618870716173076	-0.06479771470576856	-4.675225087096154
O	-4.6579189261730765	0.9291166092942313	-4.878749497096154
O	-3.532142836173076	3.5227124452942316	-6.040941077096154
O	-2.723309422173076	-2.1372216047057684	-1.608247571096154
O	-2.800290317173076	-3.3506497247057685	0.30146482290384613
O	-2.088742648173076	-3.4125483847057683	-2.2314203480961536
O	-4.856473696173076	-2.8038261847057684	-0.22950463709615376
O	-3.147175804173076	-3.7352700147057685	-3.242146997096154
O	-2.643905360173076	-2.9700803847057684	-4.476341347096154
O	-2.267948291973076	-1.5932657047057686	-3.914444007096154
O	-3.5177369161730763	-2.6521089847057686	-0.5170781970961538
O	-4.549020736173076	-3.2430609147057683	-2.8548538700961537
O	-6.725413256173076	0.5287769642942314	-3.426418847096154
O	1.167840913826924	-7.8665458747057695	5.476146762903846
O	6.869372143826923	-4.422067204705769	0.14015258290384613
O	7.165564743826924	-6.194889114705768	-3.188215327096154
O	3.3487836538269242	-5.904551194705769	-3.581327157096154
O	2.9311968638269237	-8.062631524705768	-0.47015420709615396
O	4.505149173826924	-10.97038424470577	-2.3683451260961537
O	3.924044423826924	-10.22359004470577	-6.057170897096154
O	1.0182979338269238	-8.53457647470577	-7.787200747096154
O	-3.221358407173076	-8.157835114705769	-11.626031827096153
O	-4.667293036173076	-9.918819644705769	-8.624584707096155
O	-2.919549081173076	-13.252952544705769	-9.244130127096154
O	-0.680364966173076	-12.716822344705768	-6.228820667096154
O	2.603074003826924	-14.588958444705769	-6.355940167096154
O	3.724475073826924	-3.397371054705769	-10.619393587096155
O	2.0490205538269235	1.2360153710942314	-13.423815717096154
O	2.7321602038269237	2.8209006152942315	-10.085155877096154
O	4.459907463826924	0.3619070902942314	-7.736811007096154
O	7.7883389738269235	2.0616778322942313	-8.257717257096154
O	8.035351073826924	-1.4785619047057685	-4.016206597096154
O	0.8362617038269238	-2.5430007947057685	11.938584882903847
O	-2.105572622173076	-4.890123434705769	12.493252382903847
O	-4.073311626173076	-3.5801413247057687	9.514475882903845
O	-7.625840366173076	-2.3265462347057686	9.436391282903845
O	-11.285533466173074	2.1079292452942315	5.505798352903846
O	-14.664662026173076	0.42600299129423136	5.571345132903846
O	-0.537862966173076	8.315314865294232	-10.125053387096155
O	8.455052173826925	7.132370695294231	-3.046374452096154
O	7.658635603826924	9.69041060529423	-0.38301077709615394
O	4.273534153826924	10.549002685294232	1.127476332903846
O	3.316455003826924	11.22461225529423	4.753738172903846
O	0.19784482382692392	12.272079355294231	6.642745162903846
O	-2.845701503173076	6.594324465294232	8.095851482903846
O	-1.814925692173076	3.0968672752942314	7.266188882903847
O	-4.582519826173076	0.8866461672942314	5.938627232903847
O	-5.160487456173076	-2.6285047847057688	4.3902607429038465
O	-3.008449022173076	-5.109593094705769	6.299138052903847
O	-0.3155601561730761	-2.5249541147057686	7.182367402903846
O	1.2574507838269238	-2.8847958147057686	3.738129302903846
O	4.978975953826924	-3.741093894705769	3.8917052129038465
O	4.122445533826924	1.1124163401942313	3.605242372903846
O	3.3592928638269237	0.9084388292942314	-0.17383936709615377
O	0.10315641382692409	2.390101335294231	-1.318657209096154
O	-2.647885154173076	4.936089405294231	-0.731955087096154
O	-6.205520456173076	5.887077885294232	-1.9298745120961538
O	-8.598594116173075	4.646570385294231	0.6658737029038462
O	-7.322756456173076	5.215733605294231	4.250213652903846
O	-9.060677346173076	10.360147855294231	3.542005522903846
O	-4.892395856173076	12.001332555294232	0.4110559529038462
O	-1.521545736173076	10.820766475294231	1.8327048129038461
O	0.05692404382692384	7.423393985294231	2.454931912903846
O	2.810062303826924	6.552430415294232	0.024363982903846004
O	6.0096987838269245	4.888749635294231	1.191018632903846
