81

O	-2.7399232434060004	3.62300052267	0.3397656991800004
O	-3.469963263406	6.30446352267	-1.7119596748199997
O	-2.133857844406	6.07678496267	-2.35065352482
O	-1.9187323274060002	7.2487809926699995	-3.3088102648199995
O	-2.962080013406	7.288160952669999	-4.3911632548199995
O	-4.311304243406	7.42430052267	-3.6954700148199997
O	-4.475522143406	6.16328481267	-2.8548884548199998
O	-3.9822538134060004	5.94179140267	0.6781292561800003
O	-3.910284833406	5.38202816267	-0.6374512698199997
O	-3.3119870934060005	4.04365667267	-0.7148853198199997
O	-3.8280110834060004	3.1558711526699996	-1.7051103048199996
O	-3.526570223406	1.7427635886699995	-1.9267031348199997
O	-3.6376125734060003	1.0534908926699995	-0.6014737728199997
O	-4.626348503406	1.2455624176699995	0.1323484541800004
O	-2.540074384406	0.2065550226699997	-0.26895323381999964
O	-2.7297297334060002	-0.4943670073300006	1.0091026051800003
O	-1.8693190254060001	0.2030307326699996	1.9795958051800002
O	-2.207167293406	1.1692738526699995	2.8703543051800002
O	-1.1880244614060003	1.7510708766699996	3.6014016951800003
O	0.08110329659399973	1.3142136016699997	3.72672345518
O	0.3986893465939998	0.3434870826699996	2.8386775551800003
O	-0.5521449834060002	-0.12390049733000019	1.9865205451800003
O	1.092434726594	1.6422442476699997	4.695058475180001
O	1.0576289665939997	2.6593565456699997	5.442612865180001
O	2.423284746594	1.1815139316699996	4.675108225180001
O	-4.710504493406001	1.5912285456699995	-2.8294409848199997
O	-4.882042663406001	3.07781645567	-2.6806195748199997
O	-5.315249893406	5.971302432669999	1.2258066351800003
O	-5.340484513406	5.98503546267	2.70746139518
O	-5.304560483406	7.087731972669999	3.3336368651800004
O	-5.991602183406	4.95076563267	3.3896201151800005
O	-3.536998773406	-8.738854567330002	-1.2404046648199996
O	-0.0918710534060001	-10.106008167330002	-0.6258357138199997
O	1.4437100065939998	-4.56200720733	-6.788460064819999
O	-0.35582877340600017	-3.32532068733	-9.89151207482
O	-2.943750523406	-1.7185467973300006	-7.640697814819999
O	-3.897164223406	-5.14839852733	-6.286564404819999
O	-5.231620193406	-5.99015344733	-9.73990119482
O	-6.078972733406001	-2.67169613733	-11.39720059482
O	-7.425850273406001	0.5337473226699996	-9.905260394819999
O	-12.496499643406	2.1660585111699997	-7.339498664819999
O	-13.695491943406001	0.03708959266999967	-10.258424994819999
O	-11.020876873406001	-2.5673965073300002	-9.60507174482
O	0.6922213365939998	8.610778212669999	-7.531115954819999
O	0.8787377365939997	4.862579752669999	-8.17650604482
O	4.231797316593999	5.24298927267	-9.93737826482
O	5.528434866593999	1.8550208866699995	-11.17272489482
O	3.1585879965939996	-0.0973431973300003	-8.92156060482
O	1.3839095565939998	-10.01168256733	5.468832895180001
O	-2.099894617406	-10.957123467330002	6.649418005180001
O	-3.4006181634060004	-7.40580448733	6.56354186518
O	-5.152157983406	-5.47149469733	9.29050706518
O	-5.903335623406001	1.3178326106699996	10.905316905180001
O	-9.370039833406	1.2834181986699997	12.317694605180002
O	1.8837130665939998	13.04899823267	-3.1459689948199996
O	9.369428156594	4.367157312669999	-4.792776164819999
O	11.093971656593999	4.340138432669999	-1.4430392948199997
O	9.680337856593999	4.787114612669999	2.0433202351800004
O	10.324277256594	2.9195574646699995	5.293155605180001
O	9.225966856593999	3.2130160326699997	8.91116734518
O	3.6899625365939994	-0.4072920073300006	9.25290028518
O	1.898817496594	-2.3224828273300004	6.5513031151800005
O	-1.868881107406	-1.7877575573300004	6.368154295180001
O	-4.939825553406	-2.83830150733	4.333927335180001
O	-4.488373923406	-6.408498327330001	3.1409062551800004
O	-0.6639942074060002	-6.215002257330001	3.1220717651800003
O	-0.6385141134060002	-4.46599042733	-0.2535930388199996
O	1.459291736594	-6.2416260373300005	-2.8761655448199996
O	4.025444836594	-2.82615429733	-0.3840226818199996
O	2.4659182165939995	-0.010850407330000422	-2.4599346548199996
O	0.7557884965939996	2.7623856316699995	-0.5159033268199996
O	0.4872513365939999	5.033809992669999	2.4877343151800004
O	-1.7351478281060002	7.41427997267	4.418135855180001
O	-3.5027498934060004	5.55496540267	7.182105945180001
O	-1.3938418964060002	2.9008140616699998	8.914028555180002
O	0.5934535465939996	7.12587303267	11.82155530518
O	3.872051616594	9.12239036267	7.922846495180001
O	5.8471309365940005	6.319076122669999	6.200503105180001
O	4.899921556594	3.2858775626699996	4.1514068251800005
O	5.786806806593999	3.5297704826699996	0.4959852681800004
O	7.255366966594	0.6610470426699997	-1.4769974548199996
