40

O	17.63412350268681	-16.53962730606082	20.15495049717585
O	18.170828267597326	-15.46777201175204	20.94934446834848
O	17.218519745637643	-14.589779114292732	21.53303279112997
O	17.724466986929343	-13.169122667852704	21.575506935482725
O	18.63545901240502	-12.696275179225712	20.61671376401769
O	17.19156800605053	-12.308925940319629	22.303190130074693
O	19.187646803341078	-13.503534044556016	19.564087130151826
O	19.978178283312527	-12.52579093014582	18.765629269049633
O	19.277386731518625	-11.243932870678766	19.012665050995544
O	18.35802165137547	-11.356952508477153	20.112903994395296
O	16.914285458593685	-11.3290924068659	19.958021560331524
O	16.175870045774815	-10.15939951076238	19.940388003470833
O	16.58963539969073	-12.52116088381373	19.84583085741646
O	14.984888228688952	-10.476988425065468	19.210785438009307
O	14.29070710598746	-11.016213023400859	20.22747498641594
O	14.392528260891725	-12.367509547065271	20.781641918284706
O	14.132723390938422	-13.60834094697005	20.443828767223717
O	14.624716437896055	-12.600053850154758	22.31359857291732
O	13.226963941632885	-13.060118832963852	22.42754324993725
O	13.680906593736879	-14.060567661897094	21.69330718403851
O	12.336499950181373	-12.319388249597264	23.25812363741337
O	12.518303788012853	-11.038151657226887	23.468039715188173
O	13.313548171882154	-10.50933809914397	22.33153058890468
O	14.523247590395476	-11.141256766922258	22.393899113206587
O	15.280848892273884	-9.879217624740429	17.95468372116422
O	14.666994691668986	-8.688698948814308	17.84757034570865
O	16.20806012058761	-10.43000730087288	17.020810583337937
O	16.144798656809197	-11.865554693434568	17.283477718108074
O	17.267991634244773	-14.845707176795058	23.010882884150668
O	18.655185782153325	-14.45571871028087	23.31641985728708
O	19.704044842074687	-14.772459018767638	22.52426783829633
O	20.896424642474294	-14.044591178757063	22.52431712423531
O	21.132199643577742	-13.278292929613329	23.624046244826005
O	20.17921604487932	-13.263415468745693	24.600623129402425
O	18.883201398069552	-13.764077899369992	24.429270457030132
O	17.535727146019454	-10.497943079295098	16.8003752048508
O	15.893868496485192	-10.380247111860136	15.649014420414957
O	14.912060641663357	-12.225675547499147	17.884875314536494
O	15.48125329518043	-12.508374847942155	16.286421031736914
O	16.9994309637679	-12.768448829996053	17.479287127508247
