85

O	6.750797169676363	1.6257708570727276	-2.5911267885999996
O	5.723318639676363	1.3297007188727277	-3.5871055185999996
O	3.1000396696763635	-1.3523103369272722	-2.6929145686
O	2.6008683696763635	-2.0001051669272725	1.1180023514000001
O	4.627814789676363	0.6407496550727277	-2.8767458186
O	4.3555012296763636	1.0598593060727277	-1.7113169685999998
O	5.2635511396763635	2.6257040430727274	-4.1958820686
O	2.828959789676363	-2.562161126927272	-3.5377308785999997
O	2.248579029676363	-1.0168316469272722	2.1938338314
O	4.392154099676363	2.4531456230727278	-5.3743575786
O	3.8095850896763634	-2.412617756927272	-4.6587657386
O	3.312557169676363	0.04486291307272783	2.2109519414000003
O	4.456737219676363	-1.2761755769272722	-4.5481699986
O	3.2511027096763634	3.218416613072728	-5.567867638599999
O	4.592257799676363	1.5334728400727278	-6.3682307086
O	2.8423291396763632	1.1550523532727277	3.100742951400001
O	2.559218789676363	3.294294943072728	-6.744162738599999
O	3.7649984196763633	1.4256260070727278	-7.484316918599999
O	3.7957058396763634	2.2308321630727277	3.0612412314000004
O	2.9224535596763634	2.472709713072728	-7.777561288599999
O	3.4902429896763634	3.264288063072728	3.7498265314
O	4.371432639676364	4.271818253072728	4.164084341400001
O	2.2885339796763633	3.4565339630727276	4.443997841400001
O	3.400731549676363	-1.6696294269272725	-1.2704397063999997
O	4.1433060396763635	-0.6019625969272722	-3.3400685785999995
O	4.523998089676363	-2.1273489169272723	-0.8967337175999996
O	2.017082029676363	-3.3086157869272723	1.4478927414000002
O	2.4385618896763632	-1.5283767669272723	-0.22328034859999968
O	2.3430558996763633	-3.814716556927272	2.6845856014000002
O	1.9108126096763633	-4.381448046927272	0.42808802140000024
O	-1.4057701803236369	-8.833566086927274	3.7965981314000006
O	-4.195164760323637	-7.339440176927272	5.811054281400001
O	-5.923283990323637	-4.284762896927272	-1.8428632475999998
O	-5.625019940323637	-5.500510766927272	-5.425294728599999
O	-1.8361516403236369	-5.406755766927272	-5.0638337086
O	-2.088441190323637	-8.048961606927273	-2.3231502585999997
O	-3.2748403103236368	-10.502055886927273	-4.9609069586
O	-1.9832164203236369	-9.205917686927274	-8.2999189786
O	1.2328117706763633	-7.423329326927273	-9.1683278286
O	6.135333959676363	-6.651773356927272	-12.0768199186
O	6.964330939676363	-8.904826786927273	-9.1663056686
O	5.310331609676363	-11.993049686927273	-10.6296711486
O	2.5421470396763635	-11.855751686927272	-8.047884828599999
O	-0.7090782203236368	-1.7713073369272723	-11.540110118600001
O	1.5045346026763633	3.169146333072728	-13.266240618600001
O	0.25074963067636324	4.254922463072727	-9.8924545486
O	-1.8846170403236369	1.5282539550727279	-8.2827769886
O	-5.0553671703236365	3.4589834930727275	-9.1360257786
O	-8.179301800323637	1.5740564000727277	-7.975990468599999
O	-6.192365810323636	-0.6705220169272723	-5.6284383186
O	-4.820245050323637	1.9148687580727277	10.6431398814
O	-4.201236820323636	-1.575745986927272	12.0395582814
O	-2.064243020323637	-4.503031056927272	10.990161281399999
O	0.6129414544763633	-7.107089216927272	11.678396981399999
O	3.145995179676363	-5.521565556927272	9.3615575814
O	6.702369879676363	-4.524929066927272	10.1279954814
O	11.169313329676363	0.20527006307272777	7.486871981400001
O	3.7307341196763635	9.392578203072727	-8.4859143186
O	-9.348619970323636	7.227911783072728	-5.9106403186
O	-6.5551457603236365	7.718172243072728	-3.3454167586
O	-6.0538304703236365	9.812840013072726	-0.25800587559999977
O	-2.997390450323637	10.202226013072726	1.9593155014
O	-2.6526526403236366	10.287521883072728	5.7453035514
O	0.14638793767636327	10.835496383072726	8.2439518314
O	1.7030712296763633	1.5387704950727277	7.670551051400001
O	4.542892889676363	-0.6756045769272723	6.482959331400001
O	5.209318219676363	-4.003440386927272	4.717386671400001
O	2.6224879996763635	-6.537815786927272	5.811281521400001
O	-0.045930235323636714	-3.8933410369272723	6.5615501714
O	-1.0626834803236367	-3.6563578169272724	2.9252887514
O	-4.709153870323637	-4.284023466927272	2.2416054014
O	-3.6370061503236366	0.5006410070727277	2.9212817514000005
O	-2.3104188603236366	0.8180629340727277	-0.6487681285999998
O	1.1966538556763633	2.2094032530727277	-1.0122261105999997
O	3.977725179676363	4.423564833072728	0.22855364140000023
O	7.656101829676364	5.266404783072728	-0.12334646859999965
O	9.444957429676363	3.590545183072728	2.7248840914
O	7.675410219676364	3.662319023072728	6.0645206514000005
O	9.692992169676364	8.752699203072728	6.487322611400001
O	6.223077449676364	11.140738053072727	3.0132342614
O	2.6149701496763633	9.992582583072727	3.6012480414000008
O	0.8472829486763632	6.650279753072728	3.3996810214
O	-1.547990470323637	6.320974473072728	0.5231059214000002
O	-4.962461940323637	4.719883493072728	0.8505564514000004
O	-7.533295360323637	3.5063579730727277	-1.5975840175999998
