27

O	18.191178283346428	-11.745642721287346	20.836132484608637
O	18.68022899304137	-12.963447007937893	21.444694897758225
O	19.119313118881557	-11.424731877660466	19.699870777147247
O	20.219911993656027	-12.463512853749922	19.703309095825734
O	19.52421603956302	-13.571645687673087	20.42614522541171
O	18.714393871577926	-14.234989298390172	23.657158021940315
O	16.766168206001147	-11.887935855956254	20.381803147543007
O	18.011700160711698	-13.815297805741881	22.385139528638117
O	11.148130363313017	-10.736119481261763	24.153957088115227
O	19.653964474030623	-15.162807597862244	23.170590885538072
O	16.438406838825326	-12.78566885299637	19.54457133334892
O	16.0450170474694	-10.651036989172713	20.297072225505435
O	14.745698573113932	-10.718643059370368	19.6819014029303
O	13.748274223382326	-10.902983121465862	20.73954974617778
O	13.276767284548326	-12.041346454041943	21.298698602621986
O	12.487865123664507	-11.938314820234893	22.407984218432787
O	11.982389629681482	-10.84847623218297	22.99511402307294
O	12.480667266777454	-9.756082629548047	22.44657995924423
O	13.457579507189493	-9.835842957913439	21.51373414668913
O	17.350513545696014	-14.761683632986832	21.894347494783336
O	20.866213822287214	-14.777328791385433	23.670637722920826
O	20.82721869599279	-13.811789399440363	24.818335058578832
O	10.381654496584725	-11.714483858148334	24.347755115850152
O	21.583972333304033	-12.559040117467468	24.38848325627868
O	10.501841440827999	-9.639284571661953	24.707618193308058
O	22.6022412755731	-13.077181101774318	23.430758552779796
O	21.813702319350988	-14.133567973021322	22.723910515327034
