30

O	16.67611917351257	-15.742299875225939	23.11079512824967
O	17.853182701859286	-14.87519924023012	23.16225714671473
O	18.17962777800176	-11.884822760346081	20.720448392175378
O	14.825635814536323	-10.64420379993804	19.377642541706013
O	17.59053780716242	-13.561239293736508	22.505177049284203
O	16.448316574446952	-13.058562774756714	22.735084286432944
O	18.214688221628645	-14.740150666320108	24.61330815231316
O	19.275299405780494	-11.736395168026416	19.701498001222667
O	13.808067580611569	-10.041350588353907	20.32377467872696
O	19.580028785956845	-14.266790669500761	24.87160318826396
O	20.23847734212341	-12.851301097592097	20.075558987394743
O	13.257699496189405	-11.037444314219764	21.305043873233412
O	19.366888654111108	-13.941276076583486	20.678208044102387
O	20.602003573088567	-14.545959019569267	24.01156621466317
O	19.888219617200086	-13.792500832768981	26.11692904173525
O	12.311982560298327	-10.340971738406376	22.242759953321528
O	21.86079203162356	-14.045829875266023	24.21206821245554
O	21.159687274531656	-13.27545304768939	26.326081301093176
O	11.770495161223678	-11.318281803338241	23.147019595389352
O	22.172458071419214	-13.437114211526461	25.398336223758598
O	11.073138795317188	-10.98746095328903	24.163704251667195
O	10.255271876924168	-11.926691159225907	24.8765617577047
O	10.528556512427699	-9.694050621861875	24.278165891991964
O	16.89071774064228	-11.856845305194238	19.960181295434392
O	18.373391051507387	-13.151127237911542	21.383451379331394
O	16.38923665199498	-12.863342269804523	19.420239924890843
O	14.98404249715999	-9.898387391871264	18.103662741092748
O	16.080840364231257	-10.716927498082296	20.12229091476551
O	14.120990014464146	-10.217327191379589	17.08465932087982
O	16.363753940592815	-9.779800107152655	17.537123846297206
