28

O	11.867396008513841	-12.142933913341752	21.860093225955797
O	12.259428503190932	-13.48720054327367	22.28537796029017
O	12.59909267270384	-12.305848580990917	20.456579541617415
O	14.03427410940263	-12.401153064506703	20.895224094586386
O	14.411406976675206	-10.915671037446973	20.966395092606245
O	13.180136197786755	-10.113581788789395	21.280284371412353
O	12.561076812314997	-10.952562389260594	22.409464291610682
O	14.99509787359369	-10.671879553812422	19.61623306625851
O	16.418318521724082	-10.730231072519842	19.811225932896594
O	16.940774486555522	-11.936124093958009	20.319048665393012
O	16.4937410848057	-13.002647309452204	19.79626403580592
O	18.334070933203435	-11.85822834817637	20.87607550203463
O	18.555534560409907	-13.15098335705514	21.463939603472223
O	19.256221121293386	-11.703624975157233	19.710154476284984
O	20.335925798391816	-12.72843240470631	20.01982201109938
O	19.511082776291147	-13.827774039015543	20.630067030733656
O	17.736147174104342	-13.647070435661746	22.524734814202308
O	16.93407158270936	-15.948561596493619	22.375162235237696
O	16.682280329154526	-13.091300737789394	22.894316380882593
O	17.32150168021857	-16.703934518758636	21.210639568147123
O	17.97057181175928	-15.08463290807177	22.873368658342226
O	18.19854552931082	-15.16301196048029	24.34564588205069
O	19.565885532870524	-14.690999201323518	24.63879131537341
O	20.5210868995665	-14.939761045321553	23.667666284388787
O	21.827599674928894	-14.52800407044418	23.888342508823364
O	22.06777880585818	-13.509826625105283	24.801478873801358
O	20.986507073285715	-13.035097633860197	25.50814241713956
O	19.682385425351296	-13.448364201918245	25.249131218012558
