79

O	5.445017929649122	-0.5316730961929826	-1.1352063728421053
O	6.2472612696491225	-1.7247067601929826	-1.1487435958421053
O	6.297680299649122	0.6505550618070174	-1.4987771818421054
O	7.651170129649122	0.08602059580701739	-1.7928253028421053
O	7.613830179649122	-1.2780647601929827	-1.1756116188421053
O	6.4433585596491225	-4.186981280192982	-1.835601322842105
O	4.440405249649123	-0.6934938341929826	-2.202383932842105
O	-1.7033113603508776	-4.021133240192983	-0.9501862208421052
O	-1.6180816803508777	-5.273636070192983	-1.0786678948421053
O	-2.718684340350878	-3.7462774101929828	-0.03308884784210531
O	5.928380479649123	-3.0841259601929822	-0.9867359278421053
O	6.230419709649123	-3.960643520192982	-3.2422706228421054
O	4.830172319649122	-1.0589170001929826	-3.3285862928421053
O	3.193316419649122	-0.03405618819298262	-1.952111452842105
O	2.175058909649122	-0.3124220751929826	-2.922811782842105
O	1.2610095396491223	-1.3635551101929826	-2.464791652842105
O	0.30863477264912226	-1.0172670601929825	-1.5716358938421053
O	-0.6353977673508777	-1.8798379701929828	-1.0916891668421052
O	-0.6269568713508777	-3.194702440192983	-1.3962795388421054
O	0.4815574736491222	-3.542590890192983	-2.081139502842105
O	1.4233438496491222	-2.7002350101929826	-2.6067245428421053
O	4.793704089649123	-3.327937840192982	-0.45496304884210526
O	-7.776617850350878	-1.5732860401929827	-6.466444882842105
O	0.3918419406491222	7.386731969807018	-6.460504902842105
O	-2.765505970350878	8.419885659807017	-4.7133701528421055
O	2.6382196696491222	8.142284519807017	1.7544189971578947
O	6.3162666696491225	8.907500689807017	2.3019682471578946
O	7.197184299649122	5.977821759807018	0.04627124215789469
O	5.432715479649122	7.6980326598070175	-2.8557449828421055
O	8.132547179649121	10.369588829807016	-2.7390992128421052
O	11.176331389649121	8.741726809807016	-1.1331112888421053
O	12.451689189649121	5.184318049807017	-1.3709495398421052
O	14.743036889649122	1.8396032998070173	-5.660171142842105
O	13.172412989649121	7.041075839807018	-5.688682262842105
O	9.324754959649121	-1.7252023901929827	7.541804657157894
O	8.001553979649122	1.5929432498070173	6.228900267157894
O	7.1806926696491225	2.742296749807017	9.764872037157895
O	5.690756799649122	6.269635569807018	9.761850637157895
O	4.885427289649122	6.138757359807018	6.044468047157895
O	-10.074990580350878	2.570224569807017	-0.044689066842105274
O	-10.096359580350878	4.343103789807017	-3.4255253028421055
O	-7.576525500350877	4.680610139807017	-6.221552812842106
O	-6.558904090350877	4.334208129807018	-9.869752492842105
O	-4.131166020350878	1.4968831398070175	-9.193265692842104
O	-3.962960440350878	-1.8741080201929827	-10.875280062842105
O	-1.5377454003508777	-8.209747450192983	-9.046177102842105
O	-0.39778821535087777	-9.461521010192984	-12.405953062842105
O	7.667390639649122	-7.773870410192982	8.509005607157896
O	1.7792201096491223	3.325680819807017	13.448527737157896
O	0.24674380364912224	0.7584077708070174	11.053871137157895
O	-3.017792580350878	-1.1205088201929827	10.900466937157896
O	-4.187440710350877	-3.7872149301929827	8.473545507157896
O	-7.4999905103508775	-4.304573920192983	6.675562537157894
O	-8.994431190350879	-6.901235140192982	4.342888327157895
O	-7.296548310350878	-4.885181300192983	-1.7312510328421054
O	-5.2237052703508775	-1.9212590501929825	-2.7588201128421055
O	-2.519633180350878	-2.585926460192983	-5.344786952842106
O	0.25954382364912226	-0.8139875401929826	-7.296433792842105
O	-0.8061042643508778	2.7371641398070174	-8.054661692842105
O	-3.124342530350878	2.998723539807018	-5.019027222842105
O	-0.21921113435087775	3.7620238998070175	-2.7001098828421055
O	-0.6490294583508778	7.0146114898070175	-0.7276281088421053
O	-4.388528350350877	7.207627819807017	-1.2283710658421052
O	-2.3270386903508777	2.9941259198070176	1.6626225271578945
O	1.2080984396491223	1.9733996098070175	2.6846683371578948
O	2.244229259649122	-1.5540734101929825	1.7658941571578946
O	1.4154387096491223	-5.159513880192982	1.194177897157895
O	2.675839119649122	-8.508223270192984	-0.15038196984210528
O	1.1966709296491223	-8.960289200192983	-3.6162513228421056
O	-2.4226070003508777	-7.7775860501929825	-4.001630752842106
O	-5.588019380350877	-9.484113620192984	-2.7741040428421053
O	-3.689894640350878	-12.631291870192983	-1.7961865228421052
O	-5.440747370350877	-15.098534270192983	0.5048259771578948
O	-2.397713170350878	-11.400641470192983	3.3566372371578947
O	-3.770546430350878	-7.9691833101929825	4.372443887157894
O	-3.167307740350878	-4.449870880192982	3.183374237157895
O	-1.2555428503508776	-2.2643645501929823	5.570397047157894
O	-2.1499968903508777	1.3426989598070174	6.261787027157895
O	-0.41387092835087774	4.2036115098070175	7.964668187157895
