86

O	3.3937755501636357	2.8385937406363633	-6.122388121432728
O	1.9918319901636359	2.4571723106363637	-6.291143091432728
O	0.4522137601636358	-0.42079813936363664	-4.287265891432727
O	2.559375820163636	-1.6350781993636367	-1.4790522254327272
O	1.6650458301636357	1.5846986556363634	-5.139155391432727
O	1.9731550601636356	2.0246396056363634	-3.993545731432727
O	1.1764602501636359	3.7163627306363636	-6.213234871432727
O	-0.2615080928363642	-1.6019795093636366	-4.8590162514327275
O	3.158904680163636	-1.1568732893636366	-0.2640873914327271
O	-0.2624415168363642	3.5191974206363636	-6.4583825414327265
O	-0.3882088568363642	-1.3192028393636366	-6.326579961432728
O	3.9577484901636355	0.11093801063636355	-0.5815894014327272
O	0.7063971501636358	-0.32350944936363657	-6.5697303014327275
O	-0.8100162888363642	2.5903022006363634	-7.300861171432727
O	-1.209284759836364	4.217774960636364	-5.718871071432727
O	4.050588560163636	1.0851891956363635	0.553515458567273
O	-2.171215719836364	2.590322480636363	-7.6005215814327265
O	-2.513177859836364	4.368470560636363	-6.106610551432727
O	4.888319350163636	2.1899806036363634	0.19770645856727276
O	-2.966770169836364	3.6272013406363635	-7.190489641432727
O	5.076303930163636	3.0996609606363634	1.0756600685672728
O	6.018665940163636	4.139147800636364	0.9789917485672728
O	4.637342090163636	3.0925558106363633	2.4055698585672727
O	3.658550980163636	-2.6687865293636364	-5.2990514014327275
O	1.657327820163636	-0.8645722493636367	-3.553984571432727
O	0.8877002071636358	0.4283085876363635	-5.358964411432727
O	2.828902010163636	-0.4384054093636365	-3.817538991432727
O	3.077127250163636	-2.777092699363637	-2.323360127432727
O	1.446267080163636	-1.1441015993636365	-2.150289403432727
O	3.3374957601636357	-3.529512389363637	-1.346436097432727
O	2.5630089601636357	-2.9917387993636364	-3.736375051432727
O	1.5528798601636358	-9.369907859363636	2.1010523685672733
O	0.7648919381636358	-8.481852729363636	5.638424268567272
O	-5.606282809836364	-4.704667849363637	1.6893378685672729
O	-7.814432289836364	-5.414699379363636	-1.311785941432727
O	-4.770639229836364	-4.903149329363637	-3.519831681432727
O	-3.036286769836364	-7.866548209363637	-1.841321616632727
O	-5.6844454998363645	-10.103101759363637	-3.395883541432727
O	-6.976989569836364	-8.242354029363636	-6.460543461432728
O	-5.207441539836364	-5.984769179363637	-8.912551161432727
O	-3.481858609836364	-4.272567659363636	-14.142788461432728
O	-0.9390474218363641	-6.789713449363637	-12.964735761432728
O	-3.1387124198363643	-9.837318359363637	-13.455496561432728
O	-3.427996949836364	-10.340615859363636	-9.708294751432726
O	-8.221165249836366	-0.3265556993636365	-8.398294891432727
O	-7.594167319836364	5.018557610636364	-10.259921261432728
O	-6.329664319836364	5.4846017206363635	-6.757203461432727
O	-6.860600509836364	2.3353463006363633	-4.660158991432727
O	-9.810239489836365	3.9647188506363635	-2.893668552432727
O	-11.408033979836365	1.5918934396363635	-0.3376179714327272
O	-8.361487069836365	-0.6893925993636367	-0.276094421432727
O	3.328997460163636	-0.09882730936363648	11.344046938567272
O	4.728517620163636	-3.637748919363637	11.356234538567273
O	5.684338940163636	-6.110629609363636	8.680675638567273
O	8.203260070163635	-8.433896259363637	7.060836438567273
O	8.612780110163635	-6.247167199363637	3.999487028567273
O	11.807972220163634	-4.8904847993636364	2.5069603985672733
O	13.462713220163636	0.7089743516363635	-1.4467573884327272
O	-2.842456499836364	10.801790600636364	-7.050555941432727
O	-10.957225279836365	6.720930830636363	2.955808578567273
O	-7.171230049836364	7.202807680636363	3.1215389185672726
O	-4.775404659836364	8.914355630636363	5.446544828567273
O	-1.0289097688363642	9.389398350636363	5.182369408567272
O	1.7019497801636359	9.034908570636365	7.804043738567273
O	5.440842020163636	9.615492870636363	7.961943138567273
O	6.332245190163635	0.7525726856363635	4.9029694785672735
O	7.694339340163636	-0.9171578193636365	1.7868447785672728
O	7.1707745201636355	-3.882675459363637	-0.4886273114327271
O	5.9118609701636355	-6.861808609363637	1.4622267785672727
O	4.335846160163636	-4.686832669363636	4.159565708567273
O	1.2363855301636357	-4.104644129363637	2.0559251085672727
O	-1.9308331898363642	-5.085755629363637	3.8024717185672725
O	-0.7554757458363642	-0.36252783936363664	4.516827308567272
O	-2.127432799836364	0.5914302106363635	1.1101455385672727
O	0.2594115271636358	2.4437413606363636	-1.141879740432727
O	3.1314744201636358	4.864106560636364	-1.635986270432727
O	5.695773020163636	6.190078480636363	-4.103828361432727
O	8.949845130163634	4.411994110636364	-3.410979061432727
O	9.776675800163636	3.8044846606363634	0.22821511856727295
O	11.505490520163635	9.007051380636364	0.1415734685672727
O	6.585606780163636	11.366606410636363	0.2166345885672727
O	4.265155310163636	9.690150820636363	2.758796418567273
O	2.8456635401636357	6.202251910636363	3.150661298567273
O	-0.8391780768363641	5.931194390636364	2.483883458567273
O	-3.1811619098363644	3.9008316106363634	4.657031908567273
O	-6.706891969836364	2.7070988006363637	4.291729788567272
