78

O	-3.9873151675999994	3.5635427339285712	1.4320682679285717
O	-4.914813417599999	4.319551513928571	0.6402586399285717
O	-4.180177827599999	4.026271593928572	2.8897311179285716
O	-5.113979987599999	5.201224693928571	2.8408617479285714
O	-5.842955797599999	4.916043063928571	1.5597276079285718
O	-5.328024757599999	6.142685903928571	-1.1257189890714283
O	-4.386798827599999	2.1432528739285712	1.3498544579285718
O	-1.8128688842999992	-2.0132056860714282	-3.8376551520714286
O	-4.592170297599999	4.963760553928571	-0.5663944430714283
O	-6.796296837599999	5.910986753928571	-0.7870796060714284
O	-5.552194017599999	1.7367858569285715	1.1692495079285719
O	-3.3456338675999993	1.1916695704285714	1.4063163879285718
O	-3.654361877599999	-0.20433815607142858	1.2729687479285718
O	-3.307054287599999	-0.7112432860714286	-0.06984370907142831
O	-1.9959601325999992	-0.9443402760714286	-0.3420926240714283
O	-1.5092889405999992	-1.3749600860714286	-1.5409370520714283
O	-2.313239190599999	-1.4311338760714285	-2.6297359120714283
O	-3.5709025575999993	-0.9903471460714288	-2.3812853220714283
O	-4.0197104576	-0.4568191160714288	-1.2041705600714283
O	-3.9518282975999988	4.281431733928572	-1.4235586120714283
O	-2.519026258599999	-2.0044246260714287	-4.889578352071428
O	-0.5023094575999991	-2.383131926071429	-4.167729362071428
O	-1.868123648699999	-3.7847068860714286	8.875509307928573
O	1.510200092400001	-5.329485986071429	8.305442247928573
O	3.2656201324000005	2.8602170539285714	7.286883617928572
O	2.1021262424000007	6.138693653928571	8.806512407928572
O	-1.3018467215999991	5.5799822839285715	7.216052527928571
O	-1.7289826175999992	2.4073490739285712	9.291540287928573
O	-1.886488662899999	4.618691843928572	12.365706107928572
O	-3.018597217599999	8.052431713928572	11.179753507928572
O	-5.423561847599999	9.01640402392857	8.423869687928573
O	-11.207282057599999	8.421845813928572	7.506187787928572
O	-8.138772737599998	7.026412093928571	11.779413007928573
O	-0.3474126875999992	11.887990993928572	-1.7108271020714283
O	0.863724842400001	9.978697643928571	1.3599251279285718
O	4.3778901124	11.357205393928572	0.9215193879285716
O	6.7172677124	10.070203113928573	3.6691793379285715
O	4.357930152400001	7.239874873928571	4.629449657928571
O	6.093909332400001	-8.358765996071428	-0.6046904000714283
O	4.4335354024	-10.393673806071428	2.1632038879285718
O	1.2405714024000007	-10.018714906071429	4.143663647928571
O	-2.0925835615999993	-11.348407206071428	5.396304527928572
O	-4.136268127599999	-8.941314106071427	3.3041349079285713
O	-6.9572259675999994	-9.721934206071428	0.9235924179285716
O	-9.731935987599998	-6.544150316071429	-4.700210612071428
O	-13.323433227599999	-7.577204636071429	-4.322308302071429
O	9.7925162724	-6.035996056071429	-10.313988492071427
O	-1.5097623885999991	11.227115193928572	-7.920666722071428
O	10.1102840724	9.131061703928571	-1.3506976120714282
O	8.0065364224	6.546321973928571	-3.2357369420714286
O	8.7256655724	3.8606021139285716	-5.775981812071429
O	6.357128232400001	1.5517501959285713	-7.626848362071429
O	6.5433361524	-2.172383676071429	-8.383279682071427
O	4.4693460824	-4.6998583060714285	-10.302216492071427
O	0.08449343240000085	-6.97231237607143	-5.9027754420714285
O	-0.417623797599999	-5.956566686071429	-2.3077336620714286
O	-4.018251637599999	-5.292412646071429	-1.2414490720714282
O	-6.072601017599999	-4.241071186071429	1.794738737928572
O	-4.4822366875999995	-5.614483446071429	4.950073217928572
O	-0.9528693945999991	-5.690838056071429	3.4663945079285714
O	-0.4319643675999991	-1.9960190760714285	4.165400827928572
O	2.6884940624	-1.2405311160714285	6.250018157928571
O	4.345442852400001	-4.554539516071429	5.544535167928571
O	3.477858212400001	-1.0968231260714287	1.3397648379285718
O	1.9222478824000009	2.3962320239285715	1.0609994279285717
O	-0.845378737599999	2.744270203928571	-1.4819050020714282
O	-2.460494486599999	1.8505033549285712	-4.7372092720714285
O	-5.5846446175999995	2.095239395928571	-6.9208737520714285
O	-7.531678997599999	-1.1425591260714285	-6.544787902071429
O	-5.419033277599999	-4.333160576071429	-6.3580373320714285
O	-3.6192392775999993	-6.107746366071429	-9.174386802071428
O	-5.299578297599999	-3.933005616071429	-11.804079992071427
O	-1.682904260599999	0.1351922959285713	-12.147858592071428
O	1.2904106124000008	-0.4419131860714287	-9.800959692071428
O	1.671823612400001	-0.7330141760714286	-6.061991562071428
O	3.4123943524000007	2.176430143928571	-4.430044032071429
O	6.004157762400001	1.7808395969285713	-1.7008502720714282
O	7.625865302400001	4.122034593928571	0.7426266319285717
