82

O	2.1659637543090917	-0.36328160290909184	-5.181569374636363
O	-2.6049386856909083	3.2355530770909082	-4.994577704636364
O	-0.4285481186909083	2.081332817090908	-5.918095964636364
O	0.6909671543090917	1.302807310090908	-5.424100914636363
O	1.3168754343090914	1.2305955230909082	-4.125477334636364
O	1.1304480043090916	0.1254925700909082	-5.8927245946363636
O	0.4153871143090916	1.835889236090908	-3.228651824636364
O	2.0367662543090916	0.05268795709090823	-3.8732030146363634
O	-0.7369772026909083	2.648275987090908	-3.6462076146363636
O	-3.4011798256909085	2.7832701270909084	-6.049018284636364
O	-1.4107437576909083	2.518584297090908	-4.894827984636364
O	-3.089904035690908	4.469304457090908	-4.601632314636364
O	-3.0400140656909085	0.8487210446709081	-3.4140416946363636
O	-3.9250099656909083	2.960667457090908	-2.2637976606363637
O	-2.2589071756909083	0.5917182290909082	-2.2179308046363637
O	-5.172550465690908	2.393804107090908	-3.764829594636364
O	-1.0331868836909084	-0.19116051290909175	-2.2813798716363634
O	0.8032720443090916	-1.5252856629090918	-3.4441852646363635
O	-0.4719856666909083	-1.011613542909092	-3.2556281246363636
O	-0.28149102169090834	-1.1315708429090918	-5.352522534636363
O	-1.1364070886909083	-0.6060388129090918	-4.4325615146363635
O	-2.380525805690908	0.10167203109090817	-4.501490964636363
O	-4.019968785690908	1.8310238880909082	-3.1413254146363636
O	0.7517956143090917	-1.813687072909092	-4.794888024636363
O	1.9852482943090917	-1.7563307529090917	-5.5900439446363634
O	1.8839994443090915	-1.8777775929090916	-6.929493674636364
O	3.1263149643090915	-2.217185572909092	-4.997996394636363
O	-0.7585703556909082	9.694608047090908	0.36184815536363657
O	8.441506814309092	2.4241383170909083	8.066695675363636
O	9.704350244309092	-0.7256720729090919	6.377664195363637
O	11.132766944309092	2.9430315770909083	1.5768178553636363
O	9.59522154430909	-0.4467994029090919	1.1045692153636366
O	6.185245214309092	0.04205392109090822	2.7233748853636364
O	4.321971564309092	1.1750962600909083	5.801087635363636
O	0.6115121843090917	-6.192795272909092	4.237698705363636
O	1.6735437743090915	-9.569687072909092	2.892667875363636
O	2.3595773643090916	-8.017968542909092	-0.4517658646363636
O	4.997772494309092	-5.789431522909092	1.1257109453636363
O	7.050892444309092	-8.926644042909091	1.7964856453636362
O	4.771504034309092	-11.166509472909091	-4.267201824636364
O	7.412638934309093	-9.575362272909091	-9.329639864636363
O	9.436760644309091	-10.157514372909091	-4.329245094636364
O	12.100971344309091	-10.487633572909091	1.4092903253636366
O	10.73989154430909	10.516074917090908	5.533192155363636
O	-6.826978205690908	-10.622933272909092	-5.785917124636364
O	-4.527567535690908	-10.215466072909091	-2.7643859206363635
O	-7.132302595690908	-11.830521172909092	-0.4979945346363637
O	-5.861471585690908	-12.008842972909092	3.109110315363636
O	-3.1586907156909083	-9.411495872909091	2.4996133153636366
O	-1.6490604126909083	-9.477308972909091	5.933982115363636
O	-4.646865735690908	6.578021847090908	6.512726405363636
O	-1.0365964216909083	7.668285767090908	7.113874285363637
O	2.1861012443090915	7.061177617090908	5.244140175363636
O	5.304861894309092	8.317723977090909	3.495582055363636
O	4.141975914309092	7.181996757090908	0.06788216536363634
O	3.959593784309092	9.393568147090908	-3.0059493346363633
O	0.09674793230909173	8.853004467090908	-9.028057254636364
O	2.6076226643090914	10.232950757090908	-11.509737974636362
O	-11.483630555690908	8.906566697090907	4.1667876553636365
O	-6.005557195690908	8.057767647090907	-1.3701530446363637
O	-3.0669754956909085	5.913649787090908	-0.4207243746363636
O	-0.42441765769090833	5.615367587090908	-3.0546055946363637
O	3.0654814843090916	3.8340513670909084	-3.734770824636364
O	4.841721704309092	3.5358759070909085	-0.5613465646363636
O	1.7767992843090914	3.6872362770909084	1.7787021753636363
O	1.2113756843090915	-0.05981295190909186	1.2995487553636365
O	1.0492284743090918	-1.9725623729090915	4.621045865363636
O	0.3838929043090916	1.090139284090908	6.712227375363637
O	-4.231055795690908	-2.278288812909092	6.339236645363637
O	-3.4234139456909083	-0.43434284290909175	3.144216455363636
O	-3.6780188156909084	-3.3098200529090915	0.5702838753636363
O	-4.792038955690908	-2.5114499929090917	-2.9238915146363635
O	-6.056023955690908	-0.030464490909091868	-5.676122444636364
O	-6.192430985690908	1.0940368800909082	-9.300955624636364
O	-3.8843529656909084	4.122743157090908	-9.793050284636363
O	-4.111200895690908	6.652365267090908	-6.936902574636364
O	-6.884058005690908	9.091134847090908	-6.164884284636364
O	-8.651270065690909	8.339853877090908	-9.442389584636363
O	-8.465070805690909	2.299646987090908	-2.0244381736363635
O	-8.945488525690909	-1.2010250629090917	-0.6035630646363637
O	-7.915174585690908	-2.292736422909092	2.850115035363636
O	-7.353247285690908	-5.609078982909092	4.511514805363636
