79

O	4.957139803257142	4.312265911632653	-0.6688704443673469
O	4.646567993257142	3.814365891632653	0.6940282006326532
O	5.464170943257143	4.129387661632653	1.7948808256326534
O	4.743446343257142	4.774352491632653	2.771565935632653
O	3.730010613257143	3.915851631632653	3.160159415632653
O	3.227174953257143	3.9888348216326532	4.507816105632653
O	3.7365461332571432	2.909212310632653	5.293711435632653
O	5.267640593257142	2.9648479546326527	5.444337595632653
O	5.973900623257142	1.945581807632653	4.690269045632653
O	7.135051033257143	2.337662603632653	4.003752975632653
O	7.458883893257142	1.608857353632653	2.863330295632653
O	6.788656213257142	0.406706241632653	2.649438785632653
O	6.361866573257142	-0.22453699836734708	3.812021075632653
O	5.930831873257143	0.5860136816326529	4.823937315632653
O	2.837215393257143	3.5402900216326527	2.1965502156326533
O	1.595673753257143	3.8570918916326526	2.237532175632653
O	3.364030783257143	3.435225521632653	0.9328045386326532
O	2.432419973257143	2.872982881632653	-0.020836403367346823
O	1.227332223257143	3.788529971632653	-0.04512791536734684
O	1.360709913257143	5.051648071632653	-0.07481553636734684
O	-0.06515032714285705	3.306802951632653	-0.32610735436734684
O	-1.2794226867428569	4.054306351632653	-0.4862752643673468
O	-1.972354406742857	4.3489748516326525	0.8022033036326532
O	-3.074661856742857	3.484152031632653	1.097932654632653
O	-3.480819216742857	2.984713479632653	2.2940239856326534
O	-4.6260413367428574	2.737867719632653	2.760847715632653
O	-5.417961996742857	1.536707407632653	2.673880055632653
O	-4.881677716742858	3.134005092632653	4.120885685632653
O	5.241115313257143	3.026955890632653	6.787192185632653
O	5.602093553257142	4.245608731632653	5.088315805632653
O	-2.5316587967428568	3.9061934216326533	-9.598883624367346
O	-5.149470366742857	1.2321918516326529	-9.957207224367346
O	1.3851505432571432	-3.2321109283673466	-7.019945314367347
O	5.156153473257143	-3.192662258367347	-7.4077545443673465
O	5.244071833257142	0.10979345163265286	-5.542918244367347
O	3.145138923257143	1.686218018632653	-8.342583074367347
O	6.102962573257143	1.185936901632653	-10.677874424367348
O	9.184635023257142	1.067840941632653	-8.440126004367347
O	9.988006793257142	2.858854054632653	-5.204787034367347
O	13.167558463257143	6.181553491632653	-1.767298824367347
O	10.919986863257142	8.518253411632653	-3.677006314367347
O	10.810726963257142	-1.9398959483673468	-0.9676932143673468
O	11.593291263257143	-2.612410568367347	4.654907545632653
O	7.908840293257143	-3.398332028367347	4.517777335632653
O	6.720517313257143	-3.634952258367347	0.9170564406326532
O	6.744516173257143	-7.470578558367347	1.1709263386326532
O	5.715673803257142	-9.082144108367347	-2.133494494367347
O	4.187077093257143	-5.842463358367347	-3.4391643843673467
O	-10.526178036742857	2.910324749632653	-7.240908624367347
O	-10.295355536742857	6.547802551632653	-8.320393354367347
O	-8.146956886742858	7.553670291632653	-5.373216354367347
O	-6.807480426742857	11.585078101632652	3.716841015632653
O	1.311793543257143	-1.131636248367347	13.222863875632653
O	5.7350298032571425	-2.397145238367347	10.388461325632653
O	6.8241868332571425	-6.037916048367347	10.216405975632654
O	3.894971573257143	-7.818570708367348	8.566249235632654
O	0.004675941657142947	-9.482244108367347	3.257259775632653
O	-3.427109016742857	-9.363764308367347	4.824936925632653
O	-5.3343874267428575	-6.428621168367348	6.3014790756326535
O	-8.960982796742858	-5.362650618367347	5.9779496856326535
O	-8.394603496742857	2.766176552632653	0.1905193816326532
O	-6.332029886742857	5.967842541632653	-0.0668726033673468
O	-3.794208466742857	7.696368511632652	-2.3616960743673467
O	-4.5596749767428575	6.816336731632653	-5.979788814367347
O	-6.144574616742857	3.461779081632653	-5.065686854367347
O	-2.761488056742857	1.759142080632653	-4.807937014367347
O	-2.4485711567428567	-1.3359469583673471	-7.0545724843673465
O	-4.048262156742857	-2.3868273083673466	-2.497456394367347
O	-0.5285291157428571	-2.1339502083673474	-1.033026954367347
O	-0.10906982774285705	0.19780774163265313	1.9285623756326533
O	-1.536375516742857	1.827136099632653	5.061611335632653
O	-0.941169644742857	4.649767111632653	7.558161945632653
O	-3.104789026742857	7.600716531632653	6.577219625632653
O	-6.609309676742857	6.6924569816326525	5.2927682456326535
O	-5.526497236742857	1.383894315632653	11.428687075632654
O	-6.235305516742858	-1.1056528883673469	8.600087935632653
O	-5.458030936742857	-1.180865248367347	4.901580785632653
O	-2.872399416742857	-3.7207005683673473	3.891767825632653
O	-3.160497066742857	-5.871093878367347	0.8142111646326532
