25

O	18.23561388123764	-11.832802437208473	20.613405309981115
O	18.541075612984745	-13.131696181605257	21.148485786613165
O	19.297112356632496	-11.57195672378129	19.55017689688931
O	19.925077259562556	-12.893763819921668	19.428865903905983
O	19.817132181287175	-13.476029177372503	20.595463126638606
O	16.853501714139686	-11.787195960406889	20.034894781180135
O	21.344711424372314	-15.35500181503689	22.98014008780596
O	18.16897994442428	-13.725639426396949	22.384817404456207
O	18.661103475748444	-15.032468651149498	22.86045597040667
O	20.77427332458527	-14.551501607781336	24.147282731402186
O	11.139938413002762	-10.795918253379687	24.061028532884563
O	16.34586167498884	-12.761236561681773	19.44574501076452
O	16.10210151274928	-10.595624717455376	20.294383836415694
O	14.780922748138753	-10.618209260098345	19.650933657730754
O	13.762705321539242	-10.892629150714484	20.674690658508652
O	13.385021811329587	-12.050747814449942	21.269906578030305
O	12.60338154094446	-11.976063250371379	22.39917669207094
O	11.981677025615824	-10.905288296081107	22.91285504039963
O	12.552503344329232	-9.797386424619702	22.449506789943843
O	13.482584139442357	-9.833571242181456	21.4734984905782
O	17.635558172075314	-12.968139287983437	23.219417555403208
O	19.350531558607766	-15.018402566203866	24.194978081439395
O	10.459184697940366	-11.805197133740847	24.360946394076567
O	10.519684535135418	-9.729794617173393	24.69183179514731
O	20.970015598340055	-13.11244209494691	23.768894235388814
