28

O	18.28040895595671	-13.106372094367341	21.34406321461133
O	13.662325065958887	-11.515448164022779	22.020703346579815
O	16.344438893274592	-12.395733612969495	19.077131545806655
O	14.627692862962597	-12.865413458170664	21.562472014851217
O	12.783731665396981	-7.849618908488645	24.38021191982886
O	13.443272258890197	-10.41552401241704	21.28723673418469
O	16.997845985856532	-12.817475321605368	23.313766239413216
O	14.435856762113943	-10.44620502019206	20.11649720964979
O	15.7930304475231	-10.708389614242561	20.49432784629814
O	13.149318789624093	-9.26993499152823	22.018843507584712
O	16.713673875286737	-15.676189890398872	23.093861468695625
O	12.596883853137193	-9.233841379776216	23.294243219186182
O	12.258972818742084	-10.484561761723205	23.800737516255467
O	13.00217252765872	-11.501687706862871	23.2136168446058
O	16.744044840263946	-11.66001892569864	20.033764608736423
O	19.458829959247318	-13.744035567661372	20.75553199322408
O	18.041491973881246	-11.838498045597893	20.714615920531145
O	19.125544801237268	-11.697084391113023	19.666289705332204
O	20.215440280036667	-12.667360756331636	20.028784028863168
O	17.788536802020506	-13.5340945517418	22.622357653274577
O	17.964547970659503	-14.921460361924055	23.127373824938978
O	18.3247598832163	-14.795682866413902	24.60309698895842
O	22.20382567857083	-13.299274029303835	25.544833442490383
O	21.106317890790567	-13.032841819721721	26.346151289592953
O	19.845723251325047	-13.43595940970662	25.927558222497236
O	19.657570821985228	-14.219235986873294	24.823710315027263
O	20.691914889780257	-14.307217151986901	23.93744882875786
O	21.96293632832666	-13.913902282217439	24.340607808991976
