30

O	16.712894591670064	-15.687102242354085	23.2378383139821
O	17.97551775148845	-14.951818078988724	23.28488194357648
O	18.1603205172048	-11.93228314102706	20.82407035186671
O	14.842602205168353	-10.592007856647855	19.37988976469125
O	17.760624603912134	-13.581056528039824	22.72204733796198
O	16.647892751855377	-13.05080897803759	23.025491117837838
O	18.401080896591587	-14.924016158695837	24.72789401568109
O	19.25805163830845	-11.781705207189438	19.80935004535787
O	13.898213488070637	-10.016754927282637	20.39244782710142
O	19.59760803282795	-14.104243361426978	24.984524484794843
O	20.36479251871794	-12.724168699514104	20.192693802053586
O	13.220175449584316	-11.059002289857563	21.233872121785613
O	19.64738768216469	-13.76749113701005	21.002028716319273
O	19.82214081402833	-13.641990504851305	26.253542137525315
O	20.69747598993832	-14.291112939682566	24.192958677117755
O	12.338911582993594	-10.304569404069834	22.225222210112403
O	20.95073082192694	-12.87832253420363	26.518099703823804
O	21.942992778092357	-13.835365351197456	24.610511875184972
O	11.747923966705958	-11.318010565076602	23.05964951402752
O	22.05600567579261	-12.986915729130637	25.684794120989952
O	11.072329177715067	-10.938021251830289	24.06994986219929
O	10.26701368029395	-11.879072194823806	24.733512852922757
O	10.556521755648514	-9.643925020120308	24.21528378450527
O	16.860946036368205	-11.958082033955693	20.108347819030698
O	18.443116022230004	-13.151259352064525	21.53562988694317
O	16.308833739348938	-12.992484225210184	19.681090897557134
O	14.800437080394447	-9.92256226879344	18.067435835755845
O	16.206285322750603	-10.727619225118449	19.896116639026346
O	13.782778082883002	-9.666292427110575	17.477103125678422
O	16.09829097657838	-9.670521608567181	17.37218797450789
