34

O	11.982268668889077	-12.211032844371546	21.464410917683036
O	11.69835219035723	-10.698921772853257	23.541811296506282
O	13.596041793438298	-10.973663825336304	22.33348942112432
O	13.294363938748585	-9.986251121421995	21.242003822538955
O	13.182150187031345	-12.388370857757483	20.49257135949855
O	11.47774308505154	-9.358786474927728	23.02849234866748
O	10.213692591730785	-8.899359682148255	22.72486012468298
O	13.393277785468378	-10.945248744747818	20.024288544475276
O	10.521888484971287	-11.205164644858677	23.858674955681337
O	14.74541649703548	-10.618959296712497	19.537376198997144
O	12.340609305647742	-11.578160962942897	22.628967256060747
O	18.0038935502509	-11.998387589584222	21.077369953932006
O	19.30724210530449	-13.88630296653076	21.70173686598786
O	20.62708079839239	-15.261679607992173	24.668145870013625
O	17.97946455842831	-13.295108040954698	21.779767260600018
O	18.94044703954471	-17.85888046442891	22.571152544122246
O	18.273982086258904	-17.107238774256643	23.70961421568892
O	19.028428767160662	-17.066579471244815	25.248225953984413
O	19.07310669061335	-15.29834133203947	22.092180852095396
O	21.324058373253187	-14.112909733687182	24.927766611583824
O	16.917984175454144	-17.778652254428685	23.536844823380374
O	18.942686061171926	-12.364775340703732	19.96146209390644
O	21.464782819842682	-13.713720693276235	26.24589117743114
O	18.101800604726613	-15.519587712713403	23.108746599529905
O	16.80952584132287	-15.288071423474761	22.543011127187423
O	20.718067845216158	-14.34660128996174	27.205068274384068
O	16.831029269640386	-13.777004190398854	22.41636464967164
O	20.133822004680432	-15.553249052981588	26.86886263203448
O	19.557009266857694	-13.703152547931005	20.207975791195263
O	19.6674319909031	-15.73755977981321	25.563040784681196
O	16.69330339287027	-11.75957820608121	20.375227742943576
O	16.143151589037497	-12.840793049249209	19.980944218917276
O	15.836947562591329	-10.651680006112958	20.46874952174036
O	16.539653579828485	-13.255239568721827	23.547343004654675
