36

O	16.233779577799513	-10.704416470911085	20.08370347043162
O	14.949039366232354	-10.74149541015875	19.45715222543482
O	15.346928659699083	-10.547281720272522	18.06086220413294
O	15.167088314684342	-9.564731099162188	17.339687030247912
O	13.838779422928994	-9.94776887664227	20.02192105563336
O	13.011173366864998	-10.880474743072622	20.90212644919165
O	12.279111241251027	-10.169885182577373	22.00400370894296
O	11.921356920998473	-11.058511581694114	23.07370293829035
O	11.115584783038624	-10.704469208300253	24.000969405982115
O	10.371336407311826	-11.749410617474311	24.639007549890866
O	10.538522629051528	-9.417987042361235	24.14720854645223
O	18.32018529933286	-12.120514841055844	20.7434932719032
O	15.987705736541649	-11.709885956636482	17.396147510765342
O	19.40072863540578	-14.193457590487228	21.376377743198237
O	17.183520446611276	-12.048697530862281	16.92749170997271
O	16.20786516305712	-13.233424124318077	22.322103236750966
O	15.005007401796712	-12.364303850905145	16.175825317843508
O	19.13049784502598	-12.631739811355635	19.596189273590873
O	17.1237490470823	-13.393874641741732	16.736860520412215
O	18.36591441762813	-13.271754643861309	21.652200778542817
O	16.380304111308213	-12.956642266835853	19.780802798953825
O	20.10333175441168	-13.563842820322652	20.349763786995933
O	16.030879955416744	-13.776135666544096	15.958160631443594
O	16.165681005967894	-15.773815889033031	23.1325797351116
O	18.698732850135517	-15.3404818001829	20.781762021942573
O	18.178008113191066	-16.17504627231932	21.952412009693127
O	17.50235845545434	-15.211994146348317	22.87238564765551
O	17.268994070797973	-13.903375037371505	22.269164016566595
O	16.940727752939125	-11.922012155489018	20.187293651587687
O	18.223927585367033	-15.249867769589788	24.1828779734255
O	19.607863891927877	-14.742019821382605	24.144127437074253
O	20.59247163032599	-15.720312761363951	24.028301092755953
O	21.91670254917233	-15.303761884495028	24.01006220457868
O	22.249139362855225	-14.154712947510431	24.68617670890357
O	21.251975695409012	-13.491333033819227	25.38985534166292
O	19.92552870745493	-13.729238702257383	25.047223844882208
