30

O	16.93765046036513	-15.69790456175086	23.450919061420674
O	18.11782535767069	-14.836339946250913	23.483618456775996
O	18.201517040650685	-11.97435269149775	20.849886821184082
O	14.856165924959774	-10.67699382833276	19.46132389662514
O	17.79769254158899	-13.548075328277712	22.800952922702702
O	16.639414539620635	-13.084344931874586	23.030011532421284
O	18.496816534011053	-14.665982574915628	24.92514933964754
O	19.335207668459628	-11.791601160513814	19.879981163864343
O	13.81435310888583	-10.023247185926014	20.362771082385134
O	19.84536024268309	-14.126110641004647	25.144501369806758
O	20.3821520398578	-12.795362988164744	20.27747240329391
O	13.18634216328557	-11.076477451844049	21.233260005074666
O	19.566926315104812	-13.872039161314907	20.9388928278983
O	20.21637833316934	-13.669823240710794	26.376699776365154
O	20.82019771915543	-14.395587042685928	24.228663302973548
O	12.351655935288376	-10.355912629050612	22.272585241505045
O	21.450948440351727	-13.071703289558233	26.574942753338792
O	22.058201922302914	-13.791868324610643	24.410384885343063
O	11.741187704532027	-11.356786487012057	23.108365430845804
O	22.419034478908575	-13.18267228614202	25.596622305773852
O	11.058756091917349	-11.023407457629089	24.138508844190493
O	10.246329684180493	-11.914198982965578	24.87328675298152
O	10.622062399214954	-9.687020466814657	24.26589197908309
O	16.939694235626675	-11.949052244513311	20.086121064214524
O	18.422484217006033	-13.208623335526816	21.557021438253837
O	16.40743068784801	-12.962831396596044	19.55793666900725
O	14.927294083117502	-9.888694275557912	18.204090320567037
O	16.148462811836314	-10.781822005449664	20.144167685221813
O	13.968796453702184	-10.166518862218823	17.25869834165554
O	16.25493574240557	-9.79613814148673	17.518034578579375
