85

O	-7.327451262790909	-0.1679812112727267	0.12652694845454537
O	-6.752983832790909	-0.26704517127272676	-1.2139799685454546
O	-3.3991076227909085	-2.2519701812727266	-1.2486208165454546
O	-1.4249493337909085	-2.569746901272727	2.0515768084545454
O	-5.302341122790908	-0.5898039312727267	-1.0294853535454547
O	-4.7314513227909085	0.04813654372727327	-0.09238650554545469
O	-6.963999822790909	1.0694493627272732	-1.8705821515454546
O	-3.1883908027909085	-3.4852177512727267	-2.0809570615454547
O	-0.8282701027909085	-1.4096060912727268	2.7880500384545455
O	-6.431721682790908	1.1537583537272733	-3.2414839415454546
O	-4.281978962790909	-3.5078636412727264	-3.1122408515454545
O	-1.9946774117909085	-0.5939787012727268	3.3350138184545455
O	-5.368445202790909	-2.6568286712727267	-2.5176740515454545
O	-6.620385532790909	0.09025254772727331	-4.080481431545454
O	-6.250262052790909	2.380832428727273	-3.820040461545455
O	-1.4080335487909084	0.6626767687272732	3.9135031184545457
O	-6.360057072790909	0.23449126372727325	-5.438568631545454
O	-5.698902362790909	2.466178268727273	-5.086668441545454
O	-2.4954624607909084	1.4808606337272732	4.377334108454546
O	-5.7679487327909085	1.3770040047272731	-5.942080801545455
O	-2.2155020507909082	2.665604538727273	4.759606128454545
O	-3.1467422727909087	3.357223418727273	5.548543898454545
O	-0.9114044287909084	3.1128798587272732	5.010393948454546
O	-3.136531062790908	-2.620775081272727	0.16769545445454537
O	-4.757569102790908	-1.837127801272727	-1.4819728415454547
O	-3.9476747527909084	-3.211464661272727	0.9080624684545453
O	-0.5229660327909085	-3.731667041272727	2.1512883184545455
O	-1.8907669135909084	-2.256060891272727	0.7112954384545453
O	-0.28865057279090856	-4.245654831272726	3.396387438454545
O	-0.46383729279090846	-4.704148431272726	1.0211721784545453
O	4.883626677209092	-8.046596001272727	2.9064264284545454
O	7.820617677209093	-5.830783451272726	3.686535478454545
O	5.731429867209092	-3.145710811272727	-4.022950911545454
O	4.401465877209091	-4.695656341272726	-7.222114901545455
O	1.1078278972090914	-5.382641941272726	-5.398768661545455
O	2.978486567209092	-7.663947731272727	-2.9879964715454546
O	3.6334185872090914	-10.023162801272727	-5.895491641545455
O	0.9162177072090913	-9.329314101272727	-8.467616141545454
O	-2.7072944507909087	-8.366542321272727	-8.023548881545455
O	-8.382381892790908	-8.912695201272728	-8.779256551545455
O	-7.494921572790908	-11.043582901272726	-5.796468581545454
O	-5.853323932790909	-13.819883301272727	-7.807729421545455
O	-2.4207795947909085	-12.873624501272728	-6.507011291545455
O	-3.1641733127909086	-2.638656891272727	-10.960356561545455
O	-6.965937272790908	1.5402718647272733	-11.619684361545454
O	-4.815572432790908	3.141890098727273	-8.983063201545454
O	-1.6480836807909085	1.1012441707272733	-8.371688241545455
O	0.42001937720909144	3.5909519187272734	-10.378946191545454
O	4.095921117209091	2.519924298727273	-10.524775811545455
O	3.713141987209091	0.10838281672727323	-7.5992437915454545
O	8.077408567209092	3.736187638727273	7.930642118454546
O	7.222123697209092	-3.063154321272727	9.303413238454546
O	5.693536907209092	-6.120780411272726	10.965471238454546
O	2.1764745772090914	-5.3218324312727265	9.835298338454546
O	-0.9586963457909085	-5.0481368412727265	11.915087138454545
O	-7.053406832790909	-1.627748041272727	11.250530238454546
O	-8.582740622790908	7.516130238727274	-6.311903481545455
O	4.624569197209091	8.450188078727273	-9.048574881545454
O	2.9566116872090915	8.538923588727274	-5.602784911545454
O	3.2068432972090917	10.737041198727272	-2.5569020215454548
O	1.2379393372090917	10.659368128727273	0.6853845684545454
O	2.347781607209092	10.991411098727273	4.305816848454546
O	0.6627097772090917	11.138416698727273	7.700381678454546
O	0.20059916720909143	4.8111985387272735	9.592951138454545
O	1.2431716972090916	1.6958531657272733	7.770217758454546
O	-1.2909728507909084	-1.1478617112727267	7.736162908454546
O	-1.7916233714909084	-4.680974421272726	6.351734998454546
O	1.5304951072090915	-6.5029813612727265	6.355989078454545
O	3.5925091472090913	-3.2884636912727268	6.013643628454545
O	3.073583107209091	-3.157810431272727	2.2694145584545455
O	6.208071817209092	-3.0539804712727268	0.20954477845454533
O	4.405065257209092	1.4322796677272733	1.2691392484545454
O	1.7774191472090917	1.1449115657272733	-1.4937675115454545
O	-1.7998888615909086	1.7251501727272731	-0.4334451835454547
O	-4.355248972790909	3.396763508727273	1.7618894484545455
O	-7.975821252790908	3.4034865687272733	2.8951935384545453
O	-8.122585782790908	1.6193380257272731	6.206704968454545
O	-5.254296742790908	2.3715900787272735	8.574730828454546
O	-8.090205092790908	6.929824648727274	9.797509038454546
O	-6.843053552790909	9.690143308727272	5.249252598454545
O	-3.1211104427909087	9.392316628727272	4.382988028454545
O	-0.8431787327909084	6.506418788727274	3.4942078184545458
O	0.2862049272090914	6.450436588727274	-0.0926756105454547
O	3.823927257209091	5.640516438727274	-1.1355207555454547
O	5.486078977209091	4.805962898727273	-4.393975701545455
