87

O	-5.608426280207547	2.2408880686075467	-2.3344249960264154
O	-4.943729630207547	3.2544775726075468	-1.5119107170264154
O	-3.100305648207547	1.8435870596075468	1.4824439339735844
O	-2.745383607207547	-1.9457009073924534	1.0239193339735844
O	-3.8776734902075467	2.551366647607547	-0.7777199270264156
O	-3.2357190902075468	1.6797785093075468	-1.3966864320264154
O	-4.297075780207546	4.2044206426075466	-2.4699781360264152
O	-3.3608126502075466	2.2234141026075465	2.911426803973584
O	-1.9975785142075466	-2.618189157392453	-0.09008257102641548
O	-3.700279170207547	5.3981470626075465	-1.8443789240264157
O	-4.091144380207547	3.5388619926075466	2.8098417639735844
O	-2.6702296092075466	-2.4630684673924534	-1.4329085550264156
O	-4.838424140207547	3.3592934326075468	1.4940397339735842
O	-4.523150860207547	6.140473512607547	-1.0059553637264156
O	-2.8508065942075467	6.156271122607547	-2.6445082760264156
O	-1.7061919162075467	-2.7412633373924526	-2.5638563060264152
O	-4.089607310207547	7.326752312607547	-0.43218407302641554
O	-2.295083119207547	7.2799692926075465	-2.0521778060264158
O	-2.3615794942075468	-2.622353217392453	-3.839396076026415
O	-2.942830130207547	7.883096812607547	-0.9815393555264156
O	-1.7092498052075467	-2.9423580173924533	-4.896022236026416
O	-2.2688649922075466	-2.9674004473924533	-6.206068676026415
O	-0.35439643020754663	-3.3637299773924534	-4.9057261360264155
O	-2.506817667207547	-1.7169317673924531	3.573616083973584
O	-7.016776300207546	2.352935575607547	-2.3812594560264158
O	-3.886070110207547	2.6995597526075468	0.6409765739735844
O	-4.683110980207546	0.09410099260754667	0.9470205539735845
O	-7.778885360207546	1.1707370646075468	-2.8529716760264154
O	-2.4874851962075466	-0.5023849873924531	1.0875038739735843
O	-7.4393160302075465	3.5427580726075467	-2.5147483060264157
O	-9.276683930207547	0.9849130496075468	-1.8499696270264154
O	-3.5194272602075465	0.4494157926075468	1.2405271539735845
O	-2.5487663232075466	-3.7660136473924535	2.430168053973585
O	-2.5551849832075466	-2.562402367392453	2.3453915239735847
O	0.21579798979245313	-6.234508317392453	7.502330103973585
O	3.496728999792453	-7.6053920973924525	6.276458333973585
O	4.986933109792453	0.6831052786075468	5.965821453973584
O	4.0244630697924535	3.7324680626075466	8.008195343973584
O	0.4192276697924533	3.2523419926075468	6.886321943973584
O	0.36021774979245347	-0.14029544739245337	8.626774873973584
O	0.6812944197924531	1.6946433084075467	11.941260793973585
O	-0.6692117902075467	5.202938632607546	11.350030993973585
O	-3.491845660207547	6.397172742607547	9.131368493973586
O	-8.397579670207547	9.187296182607547	8.029325663973585
O	-9.362713830207547	5.702361432607547	9.095015493973586
O	-8.628156960207546	6.238293832607547	12.789115893973586
O	-5.611197190207546	3.9566732826075466	12.621358593973586
O	-0.6145980502075468	10.440230792607545	5.015114733973585
O	-1.8929165002075468	13.410934902607545	0.3408514039735844
O	-0.0479286602075466	10.563660862607547	-1.2776648110264155
O	1.6277324697924533	8.347163962607546	1.3340499939735844
O	5.025741579792454	9.884710512607546	0.5477031339735845
O	7.766286899792453	8.361246782607546	2.7465981439735847
O	5.6180786397924525	5.371793012607546	3.7075176739735847
O	2.7022572597924532	-11.821250197392454	1.6950759639735844
O	-0.3871021802075467	-13.379277597392454	3.2638548539735845
O	-2.7629736652075465	-10.835270497392454	1.7878694639735844
O	-5.896170360207547	-11.421875697392453	-0.23262082202641554
O	-9.508276790207546	-7.724947737392452	-4.995264466026415
O	-2.0319764012075465	10.625805292607547	-7.331427606026415
O	8.074845309792453	5.674858672607547	-4.635123556026415
O	8.412353909792454	3.315932862607547	-7.549290906026416
O	5.808113049792453	1.1642375776075466	-9.275619276026415
O	5.940549049792454	-2.434752357392453	-10.484860456026414
O	3.640175399792453	-4.797822407392453	-12.362609206026415
O	-0.007116390207546619	-7.673982557392454	-7.649447466026416
O	0.05020904979245344	-7.140369557392453	-3.9228498160264156
O	-3.3725492902075467	-6.7022158973924535	-2.2747717160264154
O	-4.983578180207546	-6.050559297392453	1.1409139739735845
O	-2.9084795732075466	-7.726893097392453	3.8415994739735844
O	0.34879206979245314	-7.500963567392453	1.8320906539735844
O	0.9110248497924531	-3.889131547392453	2.8630705939735845
O	4.282211829792454	-3.2803332873924527	4.546490993973584
O	4.401744449792453	-2.569794967392453	-0.34460258702641555
O	2.757167229792453	0.8761545226075468	-0.007291363026415532
O	-0.38692421020754675	1.4453234786075466	-2.0613886160264157
O	-2.443167559207547	0.8371608726075468	-5.151940616026415
O	-5.863797500207546	1.2142318156075467	-6.745628596026416
O	-7.689986300207547	-2.0771027473924537	-6.412552366026416
O	-5.481350870207547	-5.1338335073924535	-6.954816846026416
O	-6.287292120207546	-4.166700877392453	-12.310630006026415
O	-2.7910522712075467	0.013791032607546772	-12.703089106026415
O	0.5139505497924532	-0.7271498273924533	-10.907787046026415
O	1.4636866497924532	-1.4366907973924532	-7.318533166026416
O	3.3624211097924532	1.3377337246075467	-5.632361966026416
O	6.339541699792454	0.7222709766075467	-3.3863661760264154
O	8.286395909792454	2.8165774826075465	-0.9576404776264156
