83

O	-0.3328227762777784	-6.6532739009629625	1.9808858155133335
O	0.06279343772222157	-6.456272150962962	0.5852768635133336
O	2.9128982787222215	-3.2945981009629626	1.2454228555133335
O	-1.2212575852777783	-6.588471010962963	-0.22581194668666632
O	1.3498510387222218	-4.651730250962963	-0.5185858944866664
O	-0.26042683927777843	-4.168488840962962	1.1105859955133335
O	-0.9934971622777784	-6.157954580962962	-1.6753055744866665
O	1.9718887587222216	-1.2525519909629628	0.5689006995133337
O	-2.3332347312777784	-6.112495520962963	-2.3473760444866665
O	-2.8857992512777786	-0.8947393409629627	5.873725845513334
O	-2.9145793212777784	-7.470106700962963	-2.6286208544866665
O	-3.1705922112777785	1.0762539590370372	5.021486315513334
O	-2.1342095112777786	-8.051898060962962	-3.8016168644866664
O	-0.7556016389777784	-7.453401910962962	-3.7446373244866664
O	-0.3189789992777784	-7.333051100962963	-2.3121330444866666
O	0.42493199872222154	-5.003645930962962	0.48649839051333366
O	2.403880888722222	-5.506851770962963	-1.0576298584866664
O	2.9562795987222215	-4.753913850962963	-2.237954544486666
O	2.898007268722222	-3.3199904609629627	-1.7408982844866663
O	1.6955079887222217	-3.270447460962963	-0.8366861764866663
O	2.1602026387222217	-2.6687984609629627	0.45234001751333364
O	2.3095683587222213	-0.7043711549629628	1.8793700255133334
O	1.1386968987222217	-0.6607824289629627	2.7646155555133336
O	0.23096665472222166	0.33276838703703726	2.6128066155133336
O	-0.8883069552777784	0.5049266140370373	3.3622661455133334
O	-1.2540336872777784	-0.3916402829629627	4.302846185513334
O	-2.5593610812777783	-0.18722060256296275	4.882513725513334
O	-0.5123606552777784	-1.5160069509629628	4.209887265513334
O	0.7562469287222215	-1.5889244609629627	3.6739168355133334
O	8.087320548722222	5.423669129037037	0.3560719155133336
O	6.028211668722221	8.562252679037037	0.4816869295133337
O	2.537668628722222	4.591871729037037	-6.090006394486666
O	3.738700398722221	2.353266279037037	-8.917266124486666
O	4.519718158722221	-0.33745922496296277	-6.328569234486666
O	7.074143268722222	2.0140486490370373	-4.722380304486666
O	9.15215136872222	1.7008985290370373	-7.875526914486666
O	8.153896968722222	-1.5832389009629628	-9.517186404486665
O	7.150158368722221	-4.882587150962963	-7.970052704486666
O	7.489488038722222	-10.572898760962962	-7.180416064486666
O	9.907642088722222	-9.008711630962964	-4.746791094486666
O	12.52282638872222	-8.112429990962962	-7.347618564486666
O	11.77588048872222	-4.417028930962963	-6.970414934486666
O	1.1628760987222215	-5.853296950962963	-10.135238274486666
O	-3.1809312112777786	-9.448769410962962	-9.450751544486666
O	-4.431828331277778	-6.610033790962963	-7.306818994486666
O	-2.2787886512777784	-3.499056320962963	-7.782140014486666
O	-4.9058154212777785	-1.9450927609629627	-10.060025134486667
O	-3.7786759912777788	1.4901128790370373	-11.326640884486666
O	-1.0956015832777783	1.8102500890370372	-8.637996024486666
O	3.8413048587222214	9.681057919037038	6.259816855513334
O	7.006606398722221	8.514655379037038	8.009219985513335
O	6.004564318722221	4.864620219037037	7.979819615513334
O	5.866231948722222	2.442395889037037	10.868799615513334
O	2.262673678722222	-3.4160263609629626	12.294823315513334
O	4.839063898722221	-5.302685590962962	14.266472115513334
O	-8.673585571277778	-9.263800290962962	-3.3340401344866666
O	-9.29681692127778	2.031278989037037	-5.753157614486666
O	-11.167242011277779	3.190008449037037	-2.7115461644866663
O	-10.819097611277778	2.240896659037037	0.9322409555133336
O	-10.765509811277779	4.335156289037037	4.106197755513334
O	-10.612278141277779	3.682915899037037	7.841444255513334
O	-4.134358771277778	3.424146529037037	9.209801345513334
O	-1.1756570902777783	3.749356139037037	6.902583005513334
O	1.5641878287222217	1.1485077590370372	7.302249465513334
O	4.941183708722221	0.12658944103703726	5.828295945513334
O	6.830602778722222	3.231677189037037	4.732976255513334
O	3.6556773887222214	5.280785849037037	4.104678895513334
O	3.131408808722222	3.662908019037037	0.7004332455133336
O	2.889142258722222	6.213298109037037	-2.1538865544866663
O	-1.5295414462777783	5.042394379037037	-0.25151173020666634
O	-1.5791297462777782	1.7186078390370372	-2.1658852444866663
O	-2.1066529612777787	-1.4029352309629628	-0.08514334548666633
O	-3.654197131277779	-3.206701080962963	2.8533216855133334
O	-3.5875682412777783	-6.363843660962963	4.968462715513334
O	-1.5386438912777782	-5.726961950962963	8.067985435513334
O	-1.9401176112777785	-2.2343395509629627	9.545161965513334
O	-6.432670951277778	-4.361145930962962	11.916371315513334
O	-9.589266241277778	-4.293254370962963	7.459098635513334
O	-9.294662971277779	-0.9645667269629628	5.578395955513334
O	-6.4605181112777785	0.8371102520370373	3.8327313655133337
O	-6.729570071277778	0.8617623360370372	0.05952893051333369
O	-5.957838711277779	3.967420679037037	-1.9850766944866662
O	-5.416765151277779	4.612944399037037	-5.652582384486666
