30

O	12.220915652627331	-13.649232547712858	20.92219753136605
O	11.401779242880009	-12.467681836025069	21.028791124275397
O	12.025289691993956	-11.502644587252272	21.994306110921325
O	13.235431285180285	-10.797096203955931	21.461724100350224
O	14.13489725466244	-11.881291639336578	20.87432334886561
O	14.606594721502816	-11.372145548696109	19.61541014248956
O	15.90641774269972	-10.918537540326426	19.68656788203677
O	16.94157830609037	-11.855253114875897	19.814185944373587
O	18.462080384385153	-12.866103312737849	21.29843977410067
O	16.73595014228793	-13.003152012775548	19.38217090289148
O	18.223765102466558	-11.62398212517813	20.5503686281581
O	17.035793609578942	-15.936138503351057	21.88530390122126
O	19.420647392540776	-11.451242285755196	19.673483156039424
O	19.951060595837045	-12.849086085781774	19.603424206975987
O	19.69722911661227	-13.34284955386607	20.816646425769324
O	17.3822938383062	-13.485000172510299	21.997723112473295
O	16.68203640458607	-12.689724050198635	22.701247452565156
O	17.560535153011454	-14.801023087782216	22.58451079137795
O	17.255772923758844	-14.944138095055017	24.016410048829968
O	18.50745122954851	-14.60558700579001	24.716392746773465
O	18.438949591018194	-13.727081539205027	25.763197767432715
O	19.529343628485798	-13.804216287102403	26.64304178594759
O	20.642005199728974	-14.582433477985468	26.328201738213618
O	20.767322477927	-14.950923516251013	24.98792815214452
O	19.758174378863625	-14.60122539539633	24.079610487836042
O	17.86673441302564	-16.294557425078537	20.784774803015
O	19.066939714207162	-16.480731229201616	21.05774238348041
O	17.970659210769895	-16.938272466832416	18.505126081716423
O	17.2921009305012	-17.086650224051752	19.76663569391338
O	17.298973536594833	-15.8456440313888	17.688968881792835
