28

O	16.21149491136337	-12.259128275136995	17.28362953281136
O	15.52509258854024	-11.143570670428517	16.85958837717755
O	17.680356290171243	-11.95753667989593	17.339891436379276
O	17.92950659269157	-11.499296008348864	16.028322563910407
O	18.568067731565325	-13.215304055305584	17.376354928498134
O	17.750355375128933	-14.361195369622571	17.899234598428812
O	16.712079821457724	-13.974242090323314	18.91319687935086
O	15.618959082613081	-13.07904774210223	18.325041316691916
O	11.890144087475559	-10.798542539258811	22.49612530857348
O	15.495671758032982	-13.207588187021518	14.34942172511861
O	16.723529151125796	-12.404303243315987	14.124010940782576
O	10.545829386882087	-12.236780436783508	23.656326839632168
O	12.064332227256303	-9.597951451596831	21.700710618563008
O	17.520358990796716	-12.305583123374243	12.921685152793765
O	10.304574999475463	-10.029128480907115	24.195724126623087
O	13.203578925006907	-9.57125149317389	20.781123520446368
O	18.977230086090007	-12.105312627505072	13.339060229999106
O	14.885503510835651	-11.069005564136972	19.57463003425487
O	14.053091590294542	-10.793089674271942	20.713226128511806
O	19.349704446167003	-13.348508692820547	14.083098966325792
O	13.536877499286062	-12.777955151325578	19.69526586132043
O	12.879769025149598	-11.630665148783212	20.329740904483913
O	18.321522919038422	-13.784645014488543	15.139516955613809
O	12.185192843275972	-12.019781073437864	21.63022047376077
O	17.514681208080578	-12.574240375622185	15.337573390306403
O	10.524253523399944	-10.915653740962872	23.0894408567617
O	14.914582426719862	-12.483945464507674	19.489584605599465
O	12.122542665039743	-8.330941001332526	22.151426644814595
