73

O	2.3433313900698414	-0.0453611215396823	-3.252019679833333
O	4.376496360069842	-0.7826652775396823	-2.778899959833333
O	1.0356693700698414	1.8490138324603176	0.9465416401666669
O	2.5794416500698416	1.4421245224603176	0.3963392351666668
O	2.6321670400698416	1.2597363614603176	-0.9458122038333332
O	3.7902921700698413	0.8427879354603176	-1.505658939833333
O	4.961839780069842	1.0526839384603177	-0.8473624248333331
O	4.826565360069842	2.0043086624603177	0.16282168316666684
O	3.706631180069841	1.9675124724603177	0.8988716901666669
O	3.6860454200698416	0.2335898524603177	-2.837439529833333
O	-0.42789759033015856	-6.801426567539682	-1.014241393833333
O	0.1341092340698415	-7.362981597539682	-4.753147099833333
O	4.157472650069842	-2.912767637539682	9.536503400166668
O	0.4028176200698415	-3.0980405375396822	9.667610890166667
O	-0.6548232499301585	3.1530009524603173	12.320368250166668
O	1.6100730500698415	5.228826442460318	10.074780750166667
O	6.763122480069842	6.232478272460318	9.173673520166668
O	6.375476430069842	2.758672002460318	10.695506650166667
O	1.7300183300698415	10.157421252460317	8.285473340166668
O	-0.12127108993015856	9.027048672460317	11.387491750166667
O	-6.590968339930158	-2.608425057539682	1.9099739501666668
O	-5.298344599930158	-5.581850337539682	3.9140922301666667
O	-1.8953539199301586	-6.717032657539682	5.086429220166667
O	0.9006625400698414	-9.285497517539683	5.301570500166666
O	3.2413439200698413	-7.320103537539682	3.033236150166667
O	5.050188790069842	-8.550920687539683	-0.031959043333333145
O	3.1631276600698413	-10.143993477539683	-2.885003679833333
O	5.3917525600698415	-8.502312257539684	-5.4481580098333335
O	7.638653460069842	-5.5011979675396825	-5.803219499833333
O	10.633338900069841	-7.693757527539682	-6.414383659833334
O	7.253509700069841	-13.572460477539684	-2.212986999833333
O	-3.5728917799301585	-12.071703777539684	5.414463720166666
O	-4.152048699930158	-10.575068777539682	1.9781967101666666
O	-6.983973259930158	-8.341474887539682	0.7928672931666668
O	-7.514067379930158	-6.108171647539682	-2.270838019833333
O	-10.27160106993016	-3.6367547375396825	-3.136350789833333
O	-9.17397347993016	-0.4331403415396823	-4.902906789833334
O	-10.934653499930159	2.665889182460318	-6.240315449833333
O	6.180952630069842	14.329626422460317	-4.781283999833334
O	-3.933783469930159	15.007935222460317	4.178181910166667
O	-3.347212589930159	12.290993322460317	1.5462197001666669
O	-5.467274209930158	10.546097022460318	-1.032712559833333
O	-4.5024240099301585	7.978104892460318	-3.656671949833333
O	-6.185201709930158	4.755645812460318	-4.757286889833334
O	-5.606813609930158	2.1100159124603177	-7.411409029833333
O	-6.664966419930158	1.2627176774603177	-10.915169549833333
O	-3.598627029930159	-4.353198257539682	-6.999694269833333
O	-1.5703999399301587	-2.272953857539682	-4.504775709833333
O	-0.20357566593015852	-2.365466347539682	-1.071983244833333
O	3.5736363400698417	-3.0867960975396826	-0.8892210288333332
O	6.422089200069842	-3.308343247539682	1.6337888101666669
O	5.098204840069842	-4.663811967539682	4.861121710166667
O	1.5594740400698415	-3.357257037539682	4.400170270166667
O	2.5952164000698414	0.1328217774603177	5.572804610166667
O	0.45508950806984144	1.4615055424603176	8.426803020166668
O	-2.4120481799301583	-0.9028685775396823	7.786850130166667
O	-3.7090175999301587	4.475255812460318	6.361677380166666
O	-1.2338141519301586	2.841073002460318	4.0132997501666665
O	1.4299485000698413	5.6372555024603175	3.739853830166667
O	3.5871557500698414	5.544237122460318	0.5889475781666669
O	4.113155410069842	4.747650012460318	-3.074926929833333
O	6.653829470069842	4.300799522460317	-5.846074929833334
O	7.315731360069842	0.6256341494603177	-6.326188939833333
O	4.245802470069842	-1.6167342675396823	-6.059128839833333
O	1.4265941600698413	-2.132424917539682	-8.523077959833332
O	3.2673313200698413	-0.1668061425396823	-11.217288649833332
O	1.2341282600698413	1.0084224994603177	-14.206883749833333
O	1.4068540100698415	4.863302132460318	-10.182262249833332
O	-1.0576402789301584	4.882960482460318	-7.242288969833333
O	-0.7838922309301586	3.9858122424603177	-3.596520509833333
O	-1.0151292379301586	6.969283072460318	-1.252341899833333
O	-2.9792874399301588	6.921073362460318	1.9772309601666669
O	-3.1478852599301588	9.144183432460316	5.001514310166667
