27

O	12.608937601885899	-7.994259606635301	24.533798848965315
O	18.43176213446846	-14.795484996511327	24.51016594970537
O	16.70668011317178	-15.681296780416751	23.101429700646158
O	16.509559117292923	-13.019333366562478	22.839648556352515
O	17.92428206989228	-14.871816816266026	23.09743614731976
O	18.345613020445835	-13.047725283712744	21.40064128270985
O	16.18508944559166	-12.757514688750476	19.667539432667937
O	17.6320028983925	-13.519899641567305	22.526384298645635
O	15.82079992835162	-10.628332683994572	20.510386318539176
O	19.419204128611756	-13.723342783217536	20.677008358791564
O	20.184088176631008	-12.654530011182192	19.94658841638238
O	19.113555537993026	-11.635475007266525	19.66933730595969
O	18.054890025825202	-11.786889168156724	20.723573900082847
O	16.67763742062022	-11.734998838605435	20.195722024451033
O	14.403419355143747	-10.630604863183834	20.286672692071352
O	13.547241800765711	-10.492515029399618	21.474616720579334
O	13.319031019547225	-9.408722745158702	22.278286325411827
O	12.547314467031288	-9.377976836275826	23.4415424577997
O	11.870580306674032	-10.515525360298874	23.754472696433506
O	12.166458695930126	-11.644643737076752	23.039979650168195
O	12.70113355011115	-11.557167419241523	21.76280341219579
O	19.709079002638802	-14.071160804981616	24.64699622879781
O	20.752685916961383	-14.148808839883952	23.753182728603726
O	22.03367816197153	-13.737488278258157	24.11647371069325
O	22.29011736294553	-13.202150748198251	25.351034553500067
O	21.188346844607537	-12.774282947807421	26.08098476045054
O	19.942122187602102	-13.16473522490763	25.67448131122129
