32

O	16.317197940189835	-10.621216489405061	19.94165775177856
O	15.109308744305562	-10.555489704168266	19.175482005927016
O	15.88070652292398	-8.622150809058997	17.412528719571945
O	11.208253737228928	-11.039624962511985	22.89807048165195
O	14.651091795375484	-10.482737059416037	16.675424736007024
O	14.009937752829805	-9.75840747362665	19.786475404971192
O	18.646063502069072	-13.034817471202528	21.229717316169513
O	16.48160448106733	-12.864747801445318	19.56757696655721
O	13.041164583362313	-10.457891543274627	20.642831587131482
O	16.89505166265141	-15.343815990013935	22.475844406862336
O	17.09677133366351	-12.719465125248838	22.97443681595973
O	13.457500887954748	-11.208777919704563	21.826509719294148
O	17.66756903768476	-17.19663077485413	21.45274310433055
O	12.748130519655742	-12.527515430477393	21.87086076007815
O	11.668852272590572	-12.393899581833061	22.90733620275307
O	18.400247456072165	-11.788858934949666	20.561649075233127
O	17.038768791599818	-11.833140899668402	19.994686119589147
O	19.39042676555648	-11.672966936606276	19.439808531626394
O	20.51810661194472	-12.586047460490455	19.834093020522506
O	19.814198970794774	-13.638263164849059	20.644837998823423
O	18.088675609908815	-13.338159978320817	22.514334049164148
O	18.414656534246788	-14.832216813514147	24.370494971918863
O	18.180983497527087	-14.78611013523873	22.89784798965085
O	16.77932953333546	-16.282366534991965	21.437294396059535
O	16.16149941041197	-16.054642498345807	20.091480057382757
O	21.95898353626101	-13.544947778797768	23.986937427531707
O	22.20697096067055	-12.980745288352818	25.209690236598647
O	21.23475611838696	-13.086455672185982	26.172823696576565
O	19.939436579976533	-13.385386426030319	25.76662343915234
O	19.717094458436026	-14.170648381098962	24.641374406286204
O	20.823840610891594	-14.329242921654885	23.815328092467773
O	15.429341717687207	-9.920338695155815	17.790233475787737
