26

O	11.958185124667308	-8.521707505490479	22.95329895056678
O	16.372803463468514	-11.373102589164365	17.967082666579696
O	15.737722450742627	-10.147047377456225	17.96446172490084
O	16.23141815873404	-12.070226160460745	16.642495311643465
O	17.146519601413583	-13.243272665312167	16.624799190337338
O	16.52232878476915	-14.260844961845875	17.5249639841559
O	15.993642470285033	-13.731618380888268	18.81959729433789
O	15.59272609650855	-12.301174978145632	18.818233539320087
O	12.319147940669232	-11.165017604711936	22.850058396027052
O	16.489666727663085	-11.036576357598321	15.604971689762555
O	10.745963940985385	-10.218268538182343	24.482689668036386
O	12.514806467484068	-9.906495098481745	22.08791249513616
O	16.546524868883914	-11.91410160717929	14.416286874304827
O	10.67033320212709	-12.48072076522338	23.931049183683303
O	13.834842688989697	-9.658788434086496	21.481222070535917
O	17.13224820389236	-11.126789381618636	13.28524217383599
O	14.076264353276555	-10.596815766316654	19.313672893431196
O	14.180566238938807	-10.850863914355749	20.680606190939756
O	18.420345236210323	-10.506187853947331	13.676973405941329
O	13.75424275917842	-12.187083740660238	21.104690228230076
O	18.806175392254424	-11.121570175329914	14.985163734512291
O	12.52182591010598	-12.325211902997818	21.93371841154039
O	17.870760212546873	-10.673913559551961	16.034743071896596
O	10.925391550833702	-11.16179228470456	23.41024504878805
O	14.178877881117794	-11.968487950005288	18.82017601583378
O	13.509285161503435	-12.885223605721382	19.800477037956924
