85

O	-7.101456319254545	-1.656463660042364	1.4239416389999997
O	-6.701312729254545	-1.6328700400423641	0.018831915999999893
O	-3.154308999254545	-2.777290300042364	-0.858203829
O	-0.599885689254545	-2.829552050042364	1.968392869
O	-5.226727779254545	-1.618214220042364	-0.042445646000000115
O	-4.6253630392545455	-1.0090183600423641	0.8945941489999999
O	-7.339403529254545	-0.42557025004236393	-0.6103765091000001
O	-2.837695589254545	-3.9060775500423643	-1.794512331
O	-0.21904866925454503	-1.601959830042364	2.732841539
O	-6.978987939254545	-0.2365880330423641	-2.028702671
O	-4.110532389254545	-4.144509690042364	-2.559131741
O	-1.488518660254545	-1.034521810042364	3.361577659
O	-5.154059329254545	-3.712361270042364	-1.5669363710000002
O	-7.000728059254545	-1.260397790042364	-2.967546971
O	-6.700594079254545	0.9893637789576359	-2.5708402009999998
O	-0.981059618254545	0.18692083795763598	4.121586279
O	-7.082252769254545	-0.9874314000423641	-4.331110641
O	-6.641049469254545	1.277214391957636	-3.906323701
O	-2.140103776254545	0.679098496357636	4.862020359
O	-7.1321013992545454	0.314212928957636	-4.778902551
O	-1.9708231622545451	1.806339569957636	5.437586429
O	-2.841065070254545	2.3731410699576356	6.380746059
O	-0.786997489254545	2.551615759957636	5.464886319
O	-2.591213161254545	-3.042716870042364	0.47891728899999986
O	-4.584811109254545	-2.629019170042364	-0.8080552260000001
O	-3.0370020992545452	-3.9199146500423643	1.271738709
O	0.586965620745455	-3.6806905800423637	1.761359819
O	-1.333126451254545	-2.484711130042364	0.784159239
O	1.1513646907454549	-4.211548410042364	2.897807839
O	0.582588060745455	-4.699044040042364	0.6747647789999999
O	6.593855070745455	-7.037771970042364	1.152997299
O	9.153805740745455	-4.335439900042364	1.6718081589999998
O	5.204146790745455	-1.543151270042364	-5.230196831
O	3.5990812707454545	-3.0890764400423643	-8.298130471
O	0.9042556907454549	-4.563422480042364	-6.051703661
O	3.573803150745455	-6.596558120042364	-4.250966731
O	4.087684130745455	-8.550274660042366	-7.467298771
O	0.8491495107454547	-8.225479170042362	-9.443683091
O	-2.7386216472545453	-8.047908080042365	-8.272109111
O	-8.248157519254544	-9.687904860042362	-8.138642151
O	-6.443787789254546	-11.796895060042363	-5.580087171
O	-4.721305589254545	-14.023800460042363	-8.127778571
O	-1.345211701254545	-12.502244260042364	-7.332862411
O	-4.7897431092545455	-2.340610390042364	-10.419339601
O	-9.351351049254545	1.022897991957636	-9.981140961000001
O	-7.077353169254545	2.837042089957636	-7.602748761
O	-3.530897469254545	1.428528340957636	-7.751974381
O	-2.374818294254545	4.4263721099576365	-9.788519221000001
O	1.339065040745455	4.144420019957636	-10.682493331000002
O	1.976432420745455	1.493009179957636	-8.022858331
O	8.419365340745454	4.719767489957636	6.855889399
O	10.091064240745455	1.435191208957636	7.822132279000001
O	9.115394740745455	-2.201072260042364	7.576292259
O	8.513076240745455	-5.615983400042364	9.125078619
O	4.759852230745455	-5.460349960042364	8.692459989
O	2.0858595407454548	-5.989411490042364	11.299191668999999
O	-4.552211559254545	-3.838038230042364	12.069980168999999
O	-11.024553959254545	6.132530079957636	-3.857123111
O	1.0222473707454551	9.925369869957635	-8.664118311000001
O	0.06586636074545504	9.422200689957634	-4.995229951
O	0.4614810707454551	11.380913539957636	-1.805650741
O	-0.829342259254545	10.648094239957636	1.6881169690000002
O	0.8590948407454551	10.921361439957636	5.084537089
O	-0.15740253925454506	10.464282059957636	8.708753998999999
O	2.116695790745455	1.366177430957636	7.599752679000001
O	0.25151743074545485	-1.934334760042364	7.700011269
O	0.165686370745455	-5.369441690042364	6.032533349
O	3.711761660745455	-6.486427500042364	5.266344679
O	5.037631180745454	-2.903460790042364	4.942100569
O	3.8109213707454543	-2.588878970042364	1.378857859
O	6.4391092807454555	-1.683464120042364	-1.1524164350000001
O	4.0541642807454545	2.243282439957636	0.6998247289999998
O	1.0564463707454548	1.642728559957636	-1.590293291
O	-2.3065804312545453	1.4051182539576361	0.10051353399999985
O	-4.662265809254545	2.353992939957636	2.883775709
O	-7.9314830392545455	1.522016335957636	4.600251439
O	-7.105884059254545	-0.4929247600423641	7.660419279
O	-4.066488799254545	0.627812309287636	9.612276268999999
O	-7.408147949254546	4.410419389957636	11.763940268999999
O	-7.580055369254545	7.709745839957636	7.418678169
O	-4.104310049254545	8.244250649957635	5.900029489
O	-1.533100081254545	5.956311379957636	4.324954049
O	-1.109646811254545	6.412282929957636	0.6151612089999999
O	2.2649598407454548	6.420047149957636	-1.0876084670000001
O	3.409245680745455	6.188159089957636	-4.651688581
