31

O	22.08317023825855	-15.270641518112754	24.676572966957337
O	20.792786697567237	-14.896012290269773	24.93275872906309
O	20.71531831221114	-13.646065606220635	25.541805722872557
O	21.481030342824447	-12.65026399385935	25.000786605529175
O	22.579394285599378	-13.040935346749446	24.292620097962242
O	22.83569397716827	-14.347985552257967	24.017164606634694
O	19.767697749988677	-15.917986406436327	24.992350367920114
O	18.472948615109722	-15.921146215813724	24.234811700976618
O	18.259832800669855	-14.53754225009461	24.054099594009518
O	19.170301914385526	-13.877700250275748	23.158661198485483
O	18.674425496725057	-12.735905342132877	22.606347473778637
O	19.006224425435853	-12.23411725297051	21.373580003257846
O	20.217007920887603	-12.744010358461534	20.935437108443192
O	20.816013416493114	-13.835636174868256	21.55748226697308
O	20.021244167480038	-14.600189318207835	22.361825325435326
O	17.686254197353385	-12.182534273534774	23.08761653289492
O	20.44805860911188	-12.695805693751803	19.482341261363047
O	18.292574138847723	-11.102595394479527	20.880290183779426
O	16.9061087856475	-11.194562287481169	20.41117086325277
O	15.608433488653983	-10.777345657241183	20.881561216340593
O	16.565834869011542	-11.10291621990697	19.173760664321716
O	14.568027757834026	-11.81653414244373	20.57191188609357
O	15.449814894712215	-12.925334252266879	20.288583948774836
O	15.800340296718614	-13.934340973451167	21.252154518669904
O	16.792676414986417	-14.933968715601747	21.173479649493856
O	18.004421335161624	-14.77514098137371	20.37835196770748
O	16.308737362222345	-13.439922278163493	19.256361082334266
O	17.59986038891305	-14.093179522446569	19.352368456455647
O	19.329253233283453	-15.928806152123833	26.334062177322323
O	20.252426942749192	-17.142998263933887	24.751974414873
O	15.77134078453464	-13.66365461977863	22.558334045731034
