83

O	4.02264892092	0.30052577373999956	-1.5258243922678005
O	6.40495991092	0.6819898847399996	-3.7484467572678004
O	5.89068821092	2.0748486197399996	-3.7638500272678006
O	6.23656193092	-3.0224186902600008	-1.3907639172678006
O	6.57541820092	2.79200495974	-4.928807247267801
O	6.34711951092	2.0948415997399996	-6.240258977267801
O	6.99375349092	0.7400765677399995	-6.151077597267801
O	6.30699282092	-0.02954919026000047	-5.059941367267801
O	6.75861622092	0.36362789973999954	-1.5411917702678006
O	5.98578618092	-0.2059296202600005	-2.6599285372678008
O	4.58018213092	-0.41649127026000055	-2.397115897267801
O	6.75822857092	-3.23311853026	-2.706107377267801
O	3.9281971509200004	-1.5558530602600005	-2.8986396772678007
O	2.5751754009200005	-2.0777788002600004	-2.692576387267801
O	2.42943715092	-2.3695834802600007	-1.2507617672678006
O	3.1925804209200006	-3.22234224026	-0.7648245747678006
O	1.2361363549200004	-2.0730367102600007	-0.5619666522678006
O	1.1697404829200004	-2.5381519902600003	0.8301236327321994
O	1.6119368509200003	-1.3926935802600005	1.6437939527321994
O	2.7975438409200004	-1.1700715602600003	2.2610921027321993
O	2.9394173609200003	0.025841351739999574	2.9555206927321995
O	1.9588117709200001	0.8738992907399995	3.3236887727321993
O	0.7700536789200003	0.5978758807399995	2.7388207127321995
O	0.6465997339200003	-0.4859096002600005	1.9353125827321995
O	1.9332196009200002	1.9148122557399996	4.316828672732199
O	2.9636658709200003	2.4518908997399995	4.808905352732199
O	0.8491877642200003	2.7791564197399996	4.572197892732199
O	2.9220870709200004	-3.23791976026	-3.5785608472678008
O	3.9513442809200003	-2.2639796002600003	-4.142728337267801
O	7.48230781092	-0.9021166602600004	-1.3882194262678007
O	6.34478531092	-1.7308814302600006	-0.8557418452678007
O	6.19128790092	-4.10781220026	-0.46650619426780066
O	5.51719104092	-1.3399846802600006	-0.023304223267800683
O	-5.49969464908	-7.746853940260001	0.31592906273219923
O	-8.27713417908	-5.588197940260001	1.6347020227321996
O	-6.15032190908	-1.3993261602600007	-5.367767727267801
O	-5.02828102908	-2.2984952302600004	-8.8724184972678
O	-1.8034621190799998	-3.5661379002600007	-7.391261197267801
O	-3.7035539490799994	-6.196922110260001	-5.414198287267801
O	-4.56797218908	-7.84701671026	-8.7225085272678
O	-1.8715271990799995	-6.801820300260001	-11.1856909472678
O	1.8273127959200002	-6.144610980260001	-10.6167964072678
O	6.52087898092	-9.410745930260001	-9.1224305672678
O	4.68974639092	-11.66565023026	-11.612765747267801
O	1.3410727789200003	-10.82574293026	-10.0494015272678
O	4.693745320920001	5.115620979739999	-9.1344909272678
O	1.4254871659200004	3.2003362297399995	-8.8533296772678
O	-0.5097986590799998	6.1985401497399994	-10.2734348272678
O	-4.24901784908	5.42904982974	-10.5526348272678
O	-4.01629201908	2.4253523897399996	-8.2274256272678
O	-7.43956716908	-4.19137688026	7.6855023327322
O	-6.04716720908	-7.60297789026	8.6088158627322
O	-2.5071614890799996	-6.757963800260001	7.568751712732198
O	0.6687606069200003	-7.114346620260001	9.5703089527322
O	6.99329882092	-4.02632219026	9.4493675527322
O	9.10085327092	-6.881468530260001	10.5780478527322
O	8.82397828092	8.504292999739999	-5.700986177267801
O	-2.6429473190799997	10.14241559974	-4.475256657267801
O	-2.7196328190799997	11.632379969739999	-1.0218161872678007
O	-0.7260791290799996	10.75680797974	2.0791395927321994
O	-1.7871373890799997	10.358444089739999	5.716687502732199
O	-0.06514008907999969	9.670331729739999	9.0265701327322
O	0.04291745492000032	3.0596871597399997	9.4895487527322
O	-1.2372317590799997	0.46203831573999954	7.089604822732199
O	1.1533858929200003	-2.4043807202600003	6.330790392732199
O	1.4424508449200002	-5.58563633026	4.202201752732199
O	-1.9826007790799998	-7.1829977102600004	3.9039686527321993
O	-3.8777503690799997	-3.88040735026	4.319597252732199
O	-3.3285473490799995	-2.9725818002600004	0.6677981627321993
O	-6.53575372908	-2.2309082502600006	-1.2134449032678007
O	-4.52250627908	1.8331672607399996	0.7474511227321993
O	-1.9332792390799995	2.00891662974	-2.076765547267801
O	1.6676106899200003	2.1552680097399994	-0.9937717082678007
O	4.4428341409200005	3.2145083997399997	1.3637419527321994
O	8.03371993092	2.6572690197399993	2.4226062127321994
O	8.15977868092	0.2464429247399995	5.313015072732199
O	5.32606763092	0.5963915207399995	7.826224992732199
O	8.42352024092	4.621197619739999	9.9453389527322
O	7.31957583092	8.37856284974	6.123701782732199
O	3.5666125609200003	8.47685589974	5.324003582732199
O	1.1127339019200004	5.982032239739999	3.882418032732199
O	-0.09573840907999964	6.79779496974	0.4093829527321994
O	-3.65104593908	6.399183669739999	-0.7166205268778006
