68

O	-2.022577208877551	5.056963197855102	2.9003678233877555
O	-2.062599621877551	3.671535537855102	3.1673775633877557
O	-2.7151651128775507	5.731658737855102	4.040175193387755
O	-3.056446252877551	7.193527357855102	3.7927233733877554
O	-3.997314402877551	7.146405107855101	2.5887241233877556
O	-3.191648802877551	6.610944327855101	1.4521729133877557
O	-2.757087222877551	5.178389807855102	1.5647857233877556
O	0.3496314471224491	2.249299621855102	-2.7286250966122445
O	1.043219297122449	2.582953759855102	-5.128719696612245
O	0.21058786712244904	1.2210123398551018	-1.6652750466122446
O	1.572395147122449	0.7173222578551017	-4.3784811966122446
O	-0.6074336918775509	1.8431748528551017	-0.5379839586122446
O	-0.7777568188775509	3.852892717855102	0.8912191633877554
O	-0.19654831287755092	3.266172837855102	-0.27814245431224455
O	-2.172815737877551	4.269497897855102	-0.7780500046122445
O	-0.8709770328775509	4.042507537855101	-1.4013787566122446
O	-0.7877900258775509	3.2065326278551014	-2.6235993166122444
O	0.745398537122449	1.7891285924551017	-4.041011666612245
O	-1.799943856877551	4.776271177855102	0.5004465543877554
O	-4.557390192877551	-4.143730562144898	-6.429241156612245
O	-7.304857152877551	-5.955419262144899	9.172867863387754
O	-8.32020494287755	-1.0979161021448982	7.210020153387755
O	-5.3557671928775505	-2.854087632144899	5.594111023387756
O	-3.732807332877551	-6.114445902144898	4.675501913387755
O	2.7509404571224487	-1.969131022144898	8.127146833387755
O	3.2392917671224493	0.4984054578551016	10.969268893387754
O	1.2791096771224493	3.0732945778551017	8.992170263387756
O	-1.779153205877551	0.7997424578551018	9.100839233387756
O	-1.908892277877551	1.3995728628551016	12.849213293387756
O	-3.9872358028775507	11.930740337855102	9.682932623387755
O	9.519749497122449	8.885664557855103	4.694453433387755
O	7.89600828712245	5.930314177855101	6.475934283387756
O	11.29353269712245	4.363283277855102	7.1424658833877555
O	10.92828819712245	1.0664025648551017	9.055619793387756
O	7.23338839712245	0.7404862478551018	8.189996523387755
O	1.436210647122449	-8.856717962144897	-3.9828822166122446
O	-2.105940244877551	-9.676279362144898	-2.8289923266122443
O	-4.915053452877551	-7.693030462144898	-1.2673218246122446
O	-8.492499132877551	-6.432409792144898	-1.2203857686122446
O	-7.543999462877551	-2.8566104521448983	-2.0100213266122444
O	-8.91033644287755	-0.6439499921448981	-4.736039126612245
O	-8.07763387287755	1.7426497188551018	-9.516049136612246
O	-6.528815232877552	4.929435677855102	-8.268744246612245
O	-9.73567788287755	6.805461937855101	-8.793301626612244
O	5.7967817371224495	-7.556327772144898	-10.110160456612245
O	0.461250667122449	-2.1183177721448985	-8.489710236612245
O	-0.8343909498775509	-2.1142307321448985	-4.930594586612245
O	-3.363038762877551	0.6205304078551017	-4.056544546612245
O	-5.458602402877551	1.9461314359551016	-1.0868399806122446
O	-6.517982012877551	-0.9933786221448984	1.0442071933877557
O	-3.505534952877551	-3.161203882144899	0.07461193038775549
O	-1.2739223278775509	-1.4654283121448983	2.6130526633877555
O	0.38756428712244917	-3.8517292621448984	5.111756323387755
O	-0.151828722877551	-6.905978882144898	2.9867262733877555
O	3.123684697122449	-2.919495432144899	1.0780018533877556
O	4.256725667122449	0.47341386785510164	2.4305673233877556
O	3.696710057122449	3.4329672078551017	0.1268365263877555
O	3.501233717122449	5.024907887855102	-3.2796373066122446
O	2.364285137122449	8.037256767855101	-5.338112986612245
O	-1.0116855318775508	7.241815917855101	-6.890918466612245
O	-1.512242230877551	3.6521470478551015	-8.133388096612244
O	-0.1441063728775509	2.0303072508551017	-11.266532806612245
O	1.121447827122449	5.377923057855102	-12.602945706612244
O	6.833372397122449	2.250719118855102	-8.394939466612245
O	5.30101764712245	0.7474010578551016	-5.288425006612245
O	7.48924317712245	0.8584267378551016	-2.2346775666122447
O	7.829372257122449	-2.0282366521448987	0.1605808913877555
O	9.29038919712245	-2.451345792144899	3.597522983387756
