34

O	11.555707899592052	-11.243967378923106	21.743237259366456
O	11.559883475350903	-9.990796960237864	21.85170149794116
O	11.474498611015832	-12.063932576212922	22.842202469934783
O	15.917820707556809	-8.748595102609118	17.424386915204593
O	14.361979874151753	-10.355043026992956	16.592996406540603
O	12.666376037744532	-12.244086061566197	20.634741372330662
O	14.072605778613259	-11.414833721990101	21.2871714831237
O	13.923880252919268	-9.954574841583378	21.149920906725406
O	13.911014203518762	-9.692301376021636	19.72804629232385
O	14.91637235972723	-10.635970573601961	19.07585531046395
O	16.064452100911414	-10.672728326869441	19.929715724263616
O	16.844230066098916	-11.845457122551643	19.965215596488665
O	16.351710643432305	-12.895244912658931	19.50529696840878
O	18.182910504362923	-11.783448795992712	20.579564201283652
O	19.187491787673252	-11.812317180334409	19.46918924846067
O	20.181426283052772	-12.877290347678969	19.84211955347717
O	19.377031658318025	-13.828107731815425	20.68511207796336
O	18.344948486789445	-13.025247555493163	21.333106424421846
O	17.659507555158616	-13.30137213101709	22.542788233239943
O	16.613621622696215	-12.632216081020706	22.803039019741803
O	17.714138532062087	-14.587482823786758	23.25471870860878
O	18.278468818357	-14.56889274368357	24.62258148731248
O	18.179476671067313	-15.58783300267546	22.37867723831932
O	17.256230927378287	-16.467872222627918	21.77978294609682
O	16.431764460175692	-17.030086085616915	22.56443477800112
O	17.814921825295098	-17.31223289362314	20.664511139034317
O	16.89094789456269	-16.973989317740546	19.48289059160078
O	19.729484555997768	-14.34321542566401	24.71186053640563
O	20.198066764202462	-13.74116026469767	25.8752479691454
O	21.529449259672514	-13.391301361021853	25.912032689543057
O	22.434240539651935	-14.18499897895246	25.23028591885888
O	21.926462696389905	-15.01579119564226	24.24617520215909
O	20.565218475760087	-15.273066119100854	24.136358827615005
O	15.252039063779344	-9.983953554033853	17.704880659827634
