30

O	10.554288225242136	-11.786347112030084	24.11290361269241
O	10.806371399350988	-9.795601570316244	24.413936885143592
O	11.270958691072208	-10.858711467263431	23.659103821708083
O	12.284230275464997	-11.118243847717935	22.688008160788463
O	12.774146107643451	-12.324550518196268	22.290320130728876
O	13.818930790861202	-12.495405109181267	21.376868042222505
O	14.590908123531193	-11.443068917993234	20.89951657002228
O	14.131438357612994	-10.309701933935862	21.472836645228853
O	12.878045435929534	-10.130700219298758	22.05129593033246
O	15.678418573137407	-11.391637598087357	19.930229586846608
O	15.609631038325233	-12.289346152588555	18.81574357689286
O	15.058062250059226	-11.880742608508186	17.564650119602387
O	16.24203644432837	-11.435025146360218	16.63289157724881
O	17.215739063830842	-11.12766859844783	17.67985225185096
O	16.95610819254649	-12.55739015219298	18.337032237125545
O	17.93634722964792	-12.293285260731233	19.41163164521684
O	17.65190544445574	-13.461865312808213	20.320598762525588
O	16.52680766389787	-13.867681820227816	20.642155111150924
O	18.54791998550352	-13.135616094252255	21.38958204877871
O	17.862132705936446	-11.886253532723714	21.580057377807652
O	17.61996595921485	-11.707844299018518	22.82420696288139
O	17.15504659020806	-11.35805131017916	20.343507181031427
O	19.05786168869609	-14.338541087022804	22.01236434296436
O	19.305421657754067	-14.028748039089894	23.417118390077636
O	18.241621225723577	-14.052805385161589	24.263637577449316
O	18.604693926699206	-13.88365676751336	25.625749884138283
O	19.293269312403336	-12.709419881659215	25.805451694513973
O	20.387344894412955	-12.64092301358665	24.937630245506362
O	19.972706012349008	-12.820931226717715	23.61033959992474
O	18.97947750459823	-11.699044433379633	26.672221866723408
