79

O	4.28328456087234	-1.476739056361702	-5.540691452187234
O	5.547037440872339	-1.921036856361702	-6.221711322187234
O	6.29904139087234	-2.817536156361702	-5.295277532187234
O	6.255025970872341	-2.146914386361702	-4.104521072187235
O	5.013784700872339	-2.196799376361702	-3.1842305821872348
O	4.03059288087234	-2.442355526361702	-4.428363692187235
O	6.633900130872339	-0.6977301103617021	-4.064684062187235
O	5.90467556087234	0.21734548763829797	-3.2124089221872345
O	5.932072460872339	0.07223260763829797	-1.7208647421872345
O	4.63977053087234	0.06076925063829797	-1.0600853611872347
O	4.41244762087234	-0.054672230361702046	0.2766621328127654
O	3.14921084087234	0.10645206663829798	0.8755037078127653
O	2.27870646087234	-0.17267106636170204	-0.4994962301872346
O	2.57157816087234	-0.37231623786170204	-1.8101058821872344
O	3.85359887087234	-0.5234944492617021	-2.0349531121872344
O	4.76308515087234	-0.752278972361702	1.3871557178127651
O	3.70939291087234	-1.536658966361702	1.9006546878127653
O	2.65258202087234	-1.092441365361702	1.1681480678127656
O	3.5043228108723397	-3.0450198063617018	1.7141456678127653
O	3.6372731808723398	-2.809970346361702	0.22588638081276535
O	2.5418045708723396	-3.1909325563617017	-0.7747329391872346
O	2.6239265608723397	-3.801919316361702	-2.043431882187235
O	3.76679516087234	-4.634049666361702	-1.8759893821872344
O	4.69699241087234	-4.123374496361702	-0.9280664721872346
O	4.8145859008723395	-2.770861186361702	-0.5843982286872346
O	6.0166213808723406	-2.327315196361702	0.2992872978127654
O	6.99411937087234	-2.4510760263617017	-0.6692337259872346
O	8.19636385087234	-2.665837316361702	-0.21891627018723464
O	7.93459772087234	-3.2680174963617024	0.9829325378127655
O	6.576991250872339	-3.2595120863617018	1.1573125378127656
O	6.600655890872339	-0.11081511136170202	-5.314757732187235
O	7.91617258087234	-0.6826117933617021	-3.5162345021872348
O	-3.99054032912766	-6.2655825863617025	6.759550487812766
O	-7.233988019127661	-1.243061522361702	0.5696686278127653
O	-7.7069051291276605	-3.0467948963617024	-2.7288416321872346
O	-4.23370735912766	-4.442173316361702	-2.4869178621872345
O	-5.1722221091276595	-6.241302916361702	0.7244222178127654
O	-7.541736439127661	-8.409225936361702	-1.3089078571872346
O	-6.197598579127661	-8.355954746361702	-4.871542172187234
O	-2.62205098912766	-8.222917426361702	-6.122427322187234
O	1.6730932648723398	-10.131518796361702	-9.402520052187235
O	1.8910419908723397	-11.992190436361703	-6.1471074321872345
O	-1.03302700912766	-14.299917136361703	-6.8232502521872345
O	-3.1498280991276606	-12.559043236361703	-4.2152844921872346
O	-7.676779689127661	-0.07832127836170205	-9.232279962187235
O	-2.39856141912766	-2.8008321963617018	-9.544319392187235
O	1.6916768798723398	0.2525995996382979	-12.018156012187236
O	1.30939917187234	2.2197271236382976	-8.893622742187235
O	-1.72163520912766	1.100415793638298	-6.925627562187234
O	-3.8363879691276606	3.966552673638298	-8.168288782187235
O	-7.394647009127661	3.850037473638298	-6.692357202187234
O	-6.413492279127659	1.4670718836382979	-3.911619722187235
O	-2.0989459691276604	-1.0375542083617022	12.984440187812766
O	2.1398901808723396	-4.1704620663617025	11.312504287812764
O	11.20441006087234	-2.0183819963617022	8.864865737812766
O	6.58073056087234	5.634285233638297	-8.741731532187234
O	-3.10840414912766	9.500905523638298	-3.3851826021872347
O	-1.64681714912766	11.769629563638297	-0.7311449363872347
O	1.4610838488723399	11.298300263638298	1.4032349178127652
O	2.17967149087234	11.759790063638297	5.127075157812766
O	3.10379354087234	2.426195053638298	8.425403747812766
O	4.76694977087234	-0.824438716361702	7.087235127812765
O	3.99527310087234	-4.332181036361702	6.365880437812765
O	0.7790540708723398	-5.483784436361702	8.161421567812765
O	-0.5099889491276601	-1.943452956361702	8.330828997812764
O	-1.8407366591276602	-1.8731755863617021	4.821838377812766
O	-5.630563099127659	-1.107359323361702	4.569371417812766
O	-2.8072689891276603	2.934603703638298	4.329960527812766
O	-2.1125374791276603	2.329044513638298	0.6965581578127654
O	1.5983106548723398	2.5932017136382983	0.18106596681276543
O	5.51271699087234	3.4377436636382983	0.8133243778127653
O	9.33685652087234	2.749666923638298	0.3086404108127654
O	10.61283980087234	0.776572693638298	3.2593425078127654
O	9.09466503087234	1.9271405436382978	6.383827197812765
O	10.363140350872339	8.802873183638297	2.1267575378127654
O	6.66087677087234	9.183286243638298	2.996863057812765
O	3.7177684008723397	6.833634223638298	3.5005984078127654
O	1.1051819838723398	6.998649243638297	0.7685993378127655
O	-2.7000543591276602	7.067699853638298	1.4778507378127652
