85

O	5.07568748826	5.243759764198	-2.0476404499919996
O	1.5733158982600002	4.5149594241980004	-2.4545648914919993
O	1.9621619082600001	3.141525282198	-2.5186557169919994
O	1.9908501382600001	2.4361794491980002	-1.4709117459919994
O	0.16370735436000022	4.594271594198	-1.9321711649919995
O	-0.07554206873999977	3.7181647171980003	-0.7322616389919994
O	0.07750438126000021	4.444953264198	0.5750546310080007
O	-0.8633023717399998	4.025043254198001	1.5807861910080003
O	-1.20842655174	4.915077044198	2.4642630610080003
O	-0.4787675097399997	5.095084494198	3.6835698510080004
O	-1.8238846417399999	6.095323514198	1.9346156110080006
O	5.24526393826	4.697762154198	-0.7031443189919995
O	2.21180314826	5.637382344198	-1.8836343439919996
O	3.80665856826	7.336170894198	-3.0096898379919996
O	5.54145441826	3.2851715361980003	-0.9368117189919996
O	1.48020444826	2.459491553198	-3.6947905689919995
O	1.73607193826	6.418929244198001	-4.270293348991999
O	5.18835348826	2.311015296198	-1.9932438599919995
O	5.18197610826	3.1146002311980006	-3.2641122169919994
O	5.33598223826	2.6605764931980005	-4.529489398991999
O	4.82976618826	3.5115840371980003	-5.510427048992
O	4.39218007826	4.782503534198	-5.2648170789919995
O	3.82754033826	4.974143514198	-4.042851518991999
O	4.46081774826	4.2980369341980005	-2.9954012309919995
O	6.91894773826	3.7519883501980003	-1.6635756539919995
O	0.18615317061000022	2.477906059198	-4.230844858992
O	-1.9708273217399999	3.2493577221980003	-3.9704358989919992
O	0.1760154801800002	1.6789437941980003	-5.510731278991999
O	-0.7220057947399997	4.732664854198	-5.0534123489919995
O	1.45894290826	2.045584945198	-6.144657798991999
O	2.49907124826	1.1963313041980004	-5.517879768992
O	2.28397221826	1.2660736541980002	-4.009658908992
O	-0.7761919387399998	3.531200828198	-4.347606788992
O	1.51192027826	3.544944614198	-6.0656237589919995
O	2.8542426782600003	6.308934594198	-3.4096844789919993
O	-8.527161421739999	-3.5799074258019994	-3.2943138149919995
O	0.5485697822600002	-9.255060005802	-3.5329648089919994
O	0.6054323372600002	-5.744140265801999	-5.030459968992
O	-3.19044534174	-5.9655825258020005	-5.4631724089919995
O	-2.61908200174	-8.680022105802	-8.046925088992
O	0.9166910962600002	-8.192512205802	-9.367988718991999
O	2.9166506082600003	-5.030352825802	-9.954256628991999
O	6.10206700826	-1.4235276358019995	-13.099890208991999
O	2.5158675882600003	-0.48051632580199977	-13.713972708992
O	1.68776016826	-3.4370982758019997	-15.928960008992
O	-0.5195777587399998	-4.9529216158019995	-13.244892008992
O	-0.9352060717399998	-8.702524005802	-13.510568908992
O	8.03630171826	-5.684381105802	-6.089861248991999
O	12.51899594826	-2.6911364858019997	-4.346662318991999
O	10.346217148260001	-2.3042100958019995	-1.2987479089919995
O	7.26463382826	-4.4970131758019996	-1.5178529059919996
O	8.84444718826	-6.9848299858019995	0.9298737110080006
O	3.52291326826	-8.196958205802	0.16481867100800063
O	-11.804934651739998	-0.3811553758019999	3.7072722710080006
O	-13.65029205174	1.4061291941980003	0.8982442610080006
O	-10.62820865174	3.3996002981980005	-0.21801134899199948
O	-10.301488851739999	7.124488924198	-0.7357172889919994
O	-5.14119224174	11.789131064198001	-0.4923598389919994
O	12.54331494826	2.869193217298	1.7265479010080007
O	6.59581636826	-5.060782265802	7.638506471008
O	5.34412305826	-2.9987671458019998	10.545588491008
O	4.09333550826	0.5959585041980002	10.526310591008
O	1.1168645752600002	2.1272806011980006	12.347465691008
O	-0.36942139673999974	5.592372654198	12.762158591008001
O	-4.5955063017399995	6.219304294198	7.719504391008
O	-5.38813288174	3.769508861198	4.984307441008
O	-5.39165547174	5.248473844198	1.4222235110080006
O	-5.69984747174	4.193476794198	-2.2721150703919997
O	-8.38419162174	1.4672194241980003	-2.4855018549919996
O	-7.69119268174	0.16068316419800022	1.0565734510080005
O	-4.67001768174	-1.7983505058019995	-0.17876056899199932
O	-4.80697267174	-5.493892105801999	0.7466403810080005
O	-2.43304259174	-2.7636595858019994	4.099407901008001
O	0.7324952672600002	-2.588824235802	1.9107468410080006
O	2.08908903826	0.8133233041980001	1.2718936810080006
O	2.5044732082600003	4.413728004198	2.357115321008001
O	3.6343211282600003	7.9145606541980005	1.2366798010080005
O	0.5413388402600002	9.830218164198001	0.41793350100800053
O	-2.2220129317399997	9.280249924198	2.980167971008001
O	0.5595907732600002	12.887144794198	6.057716061008001
O	4.49514407826	9.442833614198001	7.663585591008001
O	3.05597305826	6.046627704198	8.719416391008
O	1.1285164632600002	3.3403478731980005	6.901674271008
O	3.10164364826	0.20251588419800015	6.261445921008001
O	1.60699509826	-3.246245265802	6.770136561008
