38

O	17.941581603476095	-15.134637587557378	21.58306743025519
O	18.280735893804184	-13.87693988847815	22.116149807427973
O	18.51151225217568	-10.951583214811247	20.07819278034765
O	15.188220598081713	-9.302209488141582	19.98283698419646
O	17.765749403044328	-12.61412640176042	21.626543981459573
O	16.90635399822557	-11.880322081662058	22.194800035440807
O	17.57120885419591	-13.997799261558317	23.469180465771295
O	19.52537674172043	-10.751190619204362	18.947062359932733
O	13.912697826868603	-9.349287943232325	20.671619257823842
O	16.37875013226617	-14.016847233278432	22.64021063201579
O	19.727177897710035	-12.197743044357304	18.593970396114816
O	13.477853910662736	-10.273768237763129	21.71915043662784
O	16.193379356013477	-15.157815621697406	22.004862866665547
O	15.281761898723328	-13.278379840056651	22.624382375004846
O	19.596922524513317	-12.84504765746541	19.75969480304123
O	12.10783853115953	-10.468123842954983	22.124378829081515
O	15.199540973219863	-15.50062213954988	21.27404609319959
O	14.088252132947078	-13.619181210017299	22.162628110953953
O	11.896169365183503	-11.514563863492839	23.076843012050528
O	14.14988581050827	-14.704430961326384	21.382299309911744
O	11.195197250215099	-11.356363795014268	24.12241707532384
O	10.678702899827183	-12.242362515512774	25.05618938261778
O	10.990990582190872	-10.044093804363076	24.54594243535204
O	17.298054823432803	-10.619406293885048	19.490582748106757
O	18.520112987998257	-12.245909063964437	20.509942191712042
O	17.214833984407356	-11.201137080707461	18.35329461008527
O	14.084123078732791	-10.865089888885294	19.290557837401867
O	15.272346219054727	-11.305745998528339	20.01249132324426
O	15.434940759654296	-10.570543579749485	18.585744286901363
O	15.653665161081221	-12.688792828054309	19.748041596731056
O	16.55718149000552	-13.687247866202332	19.34813271697285
O	16.516628773695416	-14.49992301753639	18.36631892338183
O	15.11512283884145	-14.541548151399263	18.199052660517847
O	14.674430030272234	-13.202566642598832	18.123798215020145
O	14.397160694247091	-12.557373909155485	19.37695577519808
O	15.349555295089143	-9.22321948755616	18.56170334874726
O	16.377200586538798	-9.92287151999201	20.277481728400733
O	14.533008032754486	-9.019523852119764	17.520521564616413
