38

O	13.803201960683769	-14.713922010518772	21.561126073993243
O	14.815369471741432	-15.768408229466484	21.40838832005389
O	15.104967201126183	-10.9511569444924	21.793614880010267
O	13.722821502681906	-13.510211314690867	22.36997580321222
O	18.429066451298972	-17.198762413132364	17.1857005748788
O	19.14889134791477	-16.257671982130653	20.17095196118104
O	13.734449327302261	-12.07822189947515	21.76342567159808
O	21.591799505759287	-17.871952272812855	21.28769862021806
O	13.749210361845265	-12.171489122442791	20.407686587116352
O	12.625127253071202	-12.986805180450105	20.38288700496575
O	12.700298324268818	-14.389628413450055	20.762256386642214
O	15.016995657346875	-11.764457346767667	18.28336406425811
O	16.070554596161873	-11.687432142086752	20.520179803030995
O	14.87923961797332	-11.711288568684456	19.778074047261928
O	17.253913040687856	-12.612776919899453	20.523848946109464
O	15.37373533058497	-14.195422573527495	18.935051008945546
O	18.24893767644923	-12.695906512099375	19.61635852488257
O	15.335837520359034	-13.177414900750447	18.028221249898174
O	18.689100367139737	-14.014920939379483	19.375106324564346
O	16.344001020944177	-13.425366633603481	17.08487623856539
O	18.42208584719868	-15.062548645125325	20.211603226854518
O	20.43491622473559	-18.21643826857992	17.555985104234413
O	17.886122105910246	-14.742981217002681	21.42868898856629
O	16.398578133035148	-15.766005029234972	17.58928217815638
O	17.643818305684118	-13.376289851437	21.666550326316848
O	15.318830159296969	-15.506894166238862	18.44686063913854
O	21.718103625784373	-16.734191244873383	22.15636582492087
O	20.51477345928478	-17.388867470505076	16.277233598573073
O	19.23460487043581	-17.154806023866463	21.248458746219345
O	19.043739381290557	-17.42081628622266	15.865736960138278
O	18.9408287895648	-18.42184211317962	17.814520974599372
O	22.433253082910817	-17.51268473581397	20.17759641114685
O	21.877759727991837	-16.13867116805767	19.812003041969774
O	21.609006404565363	-15.578336706764631	21.200785180505235
O	17.015990504100053	-17.025520518510813	17.20503401819694
O	16.53494643609956	-14.735498304572829	16.66216417103567
O	20.245872773273213	-18.219275714746104	20.94077317284605
O	16.31303343588357	-14.940853113958756	14.819624429470142
