31

O	18.988928342760286	-13.31918752387302	18.810596604607117
O	23.041397242959796	-15.324943738180576	24.99523188634197
O	13.800297196063493	-13.281337735429744	22.216124953843742
O	21.960289647432297	-15.88866641560852	25.602948626562757
O	21.03348412068439	-15.029893912739485	26.13116727533474
O	21.07769834303464	-13.654100936871723	25.927257553295995
O	22.22768138670442	-13.161876057827028	25.30812254962803
O	23.28276646733713	-14.051518733748248	25.513044677866585
O	10.62696734971121	-11.400140464386803	24.897275282470968
O	19.72458517011945	-15.613766879631847	26.16823590179947
O	19.224694845137858	-15.956844261104662	24.75145596410776
O	18.452959838551305	-14.874113148225184	24.237819678228107
O	18.856834221476497	-14.080005876117689	23.110632083304885
O	18.019274376638464	-13.203941160286023	22.44879491231014
O	18.209966819207814	-12.680329687038954	21.199742280495766
O	19.32467898483808	-13.151908676851047	20.548627522379434
O	20.254728238574277	-13.948384927608	21.243945144419303
O	19.883215453855076	-14.603529289086069	22.381476990591203
O	17.417578003933176	-11.683056284748131	20.56650164307951
O	16.24294379917965	-12.068055041799813	19.7366008513488
O	15.002724036008171	-12.166041321298698	20.451955372153947
O	14.33588289656302	-10.891309973221947	20.482832170365192
O	12.019558665645867	-12.281317726287213	23.096489184889354
O	13.125948452133429	-10.921762254996313	21.420205824262194
O	12.77399895779745	-9.863808598799963	22.272492839091242
O	11.949237974731897	-10.154801431475704	23.41610108098853
O	11.26862421805632	-11.300413142108942	23.594084571079488
O	12.893015570902389	-12.098418148050996	22.034770924369045
O	16.81601244787867	-13.17766736068588	22.77267099624078
O	18.722874437724432	-14.768570917318112	26.679823701663693
O	19.47818062581227	-16.751864614675778	26.878200753156854
