30

O	16.751216844377332	-15.685052456505058	23.224095994502566
O	18.006771000787875	-14.941129595190024	23.307449624055135
O	18.12929788678255	-11.951460867834172	20.810154892038806
O	14.794908034053574	-10.55286679087866	19.462799602673755
O	17.74323625137552	-13.597629405452764	22.700710447616864
O	16.627187630337787	-13.08210148719592	23.01646969971841
O	18.356223773683535	-14.852277757452617	24.767538636620515
O	19.19545966849516	-11.806571475900487	19.761159710351592
O	13.74941949500086	-9.904988349210278	20.318108238063115
O	19.603473073254094	-14.117875752902929	25.041075878225122
O	20.31805423160351	-12.727908311832392	20.149636269718304
O	13.160752587847508	-11.00465707303949	21.195105043469532
O	19.6663934908438	-13.75112711359574	21.03650754175014
O	20.680852451474294	-14.337321653836426	24.227655563831533
O	19.859532530049748	-13.672953879473711	26.309872201840975
O	12.246817060389162	-10.329035147496874	22.17808048968703
O	21.93181452788999	-13.861831147453579	24.60445686265183
O	21.003636249269345	-12.935052151160903	26.559182408013797
O	11.729233809284942	-11.338880218412882	23.060908997273444
O	22.08964273719618	-13.038929557597422	25.703263208075082
O	11.05535069086614	-10.94504445427462	24.070316141330128
O	10.235498710207821	-11.868722438804392	24.735620238627966
O	10.566091204342822	-9.640064034741652	24.21616404062937
O	16.81632450697771	-11.957547806277194	20.11231598747054
O	18.40865950248267	-13.183945101256896	21.499288161078454
O	16.32623814334095	-12.947362134109085	19.533442483358748
O	14.867460056941962	-9.858260472155228	18.164403307927333
O	16.069472911449786	-10.764896276041029	20.12783114479735
O	13.756636785322971	-9.888430420811709	17.367835398005894
O	16.17798476521397	-9.779093329982066	17.455434828876594
