98

O	0.12713367617586158	-8.856822883551725	0.4212974461206902
O	-0.8757862025641385	-7.889047613551724	0.7756282261206904
O	-0.39756605382413845	-6.678793483551724	1.3457558761206903
O	-1.2295552608241385	-5.495348863551724	0.9176154861206902
O	-1.8918983838241386	-5.486383663551724	-0.3209307488793097
O	-1.1763295248241386	-4.407681513551724	1.52390693612069
O	-1.8768290588241385	-6.582588323551724	-1.2497522178793097
O	-2.6032351138241383	-6.0372862435517245	-2.43019131387931
O	-2.3540269838241383	-4.579807713551724	-2.3356016538793094
O	-1.8168441238241386	-4.226006743551724	-1.0492149428793098
O	-0.4496136438241385	-3.780552113551724	-0.8457697778793097
O	-0.05706438182413853	-2.459241463551724	-0.9632132898793098
O	0.18007519617586143	-4.816620703551724	-0.5829666007793097
O	1.3394328261758615	-2.507929353551724	-1.2779279988793097
O	1.8013768461758612	-2.636545643551724	-0.02239073987930973
O	1.8753331161758613	-3.846018483551724	0.7993006561206903
O	2.526465866175861	-4.984047203551724	0.8461582361206903
O	1.2521364561758612	-3.889219803551724	2.2361858161206905
O	2.6166139761758616	-3.872266193551724	2.7985637061206905
O	2.6729052261758612	-5.068221223551724	2.23946867612069
O	2.9968172661758614	-2.770068463551724	3.6183669261206903
O	2.4463541161758613	-1.590711641551724	3.46091087612069
O	1.9307054861758615	-1.5222212215517241	2.07054187612069
O	0.9573462461758616	-2.477025713551724	1.9839168761206905
O	1.3019880061758613	-2.240372723551724	-2.6742537138793097
O	1.6021888461758613	-0.952245929551724	-2.9113903638793097
O	0.8722172361758614	-3.1923590235517243	-3.6459677338793095
O	1.2078930861758614	-4.476917283551725	-3.0368502138793096
O	-0.8304876492241384	-6.696402923551724	2.7825078861206904
O	-2.2958784138241386	-6.708377463551724	2.6333838861206904
O	-2.9390471138241385	-7.455515303551724	1.7081522161206903
O	-4.216315803824139	-7.139801953551724	1.2386088661206902
O	-4.959746253824139	-6.3168890635517245	2.0274894261206904
O	-4.385779893824139	-5.852685353551724	3.1751736261206904
O	-3.017579443824139	-5.950981063551724	3.45453728612069
O	-0.26375633382413843	-3.700029783551724	-4.163404883879309
O	1.5674278161758615	-3.269588643551724	-4.86815225387931
O	2.2469727661758614	-4.338632983551724	-2.08175860387931
O	2.2823517361758614	-5.035900763551724	-3.6538658638793096
O	0.5876455161758615	-5.555134463551724	-2.84528771387931
O	4.474584836175862	6.348089526448276	-11.64683078387931
O	2.894500046175861	-1.010786702551724	-11.229639283879308
O	2.3924738361758613	1.4252134664482758	-8.351779743879309
O	2.6342599061758616	5.042150836448276	-7.32138660387931
O	-5.048088013824138	3.0524689764482758	-4.64522095387931
O	-7.944517113824138	0.936238926448276	-5.83116192387931
O	-5.927464613824138	-2.089023803551724	-5.14575145387931
O	-3.3315765338241388	-0.962170017551724	-7.71415926387931
O	-5.938071163824138	-1.587109436551724	-10.361073563879309
O	-8.377344943824138	-4.117646893551724	-8.926976923879309
O	-7.786263893824138	-7.063193943551724	-6.65080097387931
O	-7.9230059838241385	-12.591057153551724	-5.07564868387931
O	-4.910602353824138	-12.214413653551723	-7.26076447387931
O	-6.758078273824138	-11.891601453551726	-10.56569669387931
O	-5.768993873824138	-8.237882933551724	-10.83431048387931
O	-9.877657963824138	-4.889952783551724	4.720283626120691
O	-9.289891113824138	-2.650376983551724	1.66193197612069
O	-11.728065033824139	-0.07971099655172409	3.0346726561206903
O	-11.992726533824138	2.867450826448276	0.6386610561206902
O	-8.784348613824138	1.9762568964482758	-1.1860601068793097
O	5.654078136175862	9.315000246448275	1.7384419261206903
O	7.497510296175863	9.039411246448275	-1.5891986768793096
O	7.9001134761758625	6.242398326448276	-4.098662443879309
O	10.046876966175862	3.939461156448276	-6.23528974387931
O	9.150227066175862	0.8317980864482759	-4.25529582387931
O	11.530043066175862	-1.651292604551724	-2.69756870387931
O	11.072109066175862	-6.167790173551724	2.7291240861206902
O	13.338894066175861	-8.912920873551723	1.4559561161206904
O	-7.431847943824138	-6.322227893551724	10.498760116120689
O	-11.290129933824138	5.6805765164482755	6.009956996120691
O	-7.7771195438241385	4.653868616448276	7.031363406120691
O	-1.6890150728241384	4.706279806448276	10.161764916120692
O	1.7710151661758613	6.244818946448276	10.31500381612069
O	5.255889516175862	5.157092726448276	11.339888016120689
O	7.890400636175862	2.631954026448276	5.81650453612069
O	6.414798706175862	2.3383435264482757	2.4065222361206904
O	6.945491566175862	-1.058219532551724	0.7701541361206903
O	6.075476376175862	-2.956455993551724	-2.3533642738793095
O	5.957991356175862	-0.6091243345517241	-5.4356975938793095
O	4.943130796175862	2.2739479064482757	-3.2167516138793095
O	1.3130300761758615	1.3306477664482759	-3.2299742238793097
O	-0.9749530670241384	4.136414086448276	-4.43803356387931
O	1.5338247061758614	6.925814956448276	-3.92038528387931
O	-2.6746406638241385	7.023122396448276	-0.1956022528793097
O	-0.27894713082413847	4.198854326448276	0.45549444612069023
O	-2.7555345238241387	1.339697926448276	0.9786588361206903
O	-1.7223053928241385	-1.4880611575517242	2.96048394612069
O	0.5830175061758615	-3.116565283551724	5.716212536120691
O	2.1953533861758614	-6.242449283551724	7.195369506120691
O	5.7795012761758615	-6.660354693551724	5.93279089612069
O	7.619537566175861	-3.413299823551724	5.46370011612069
O	8.572736816175862	-4.183646893551725	10.84611821612069
O	3.6421611761758617	-2.604464503551724	12.60416751612069
O	2.4971122361758615	0.6246032464482758	10.894029716120691
O	1.7537951561758613	1.552294076448276	7.32281232612069
O	-1.8955850638241385	2.198534096448276	6.599784676120691
O	-3.1012771438241384	4.999337946448276	4.39227281612069
O	-6.351883283824138	5.7396583864482755	2.72220094612069
