33

O	19.98794318393038	-14.333281534887517	21.062330717367914
O	20.9213105604726	-14.593717114503459	22.17454426193965
O	19.5219541743137	-16.245398899612436	22.954956302143525
O	19.608450380826568	-15.784125192302357	20.705584725540444
O	10.624903933700105	-12.046106159211746	24.2188731912593
O	13.750585877769854	-10.487100456592854	19.136566331843742
O	19.002564282568144	-12.066057251824995	24.098309283415585
O	10.442208748748607	-9.881477629731055	23.96904305411456
O	16.197798487040874	-10.354544540698056	18.868460759309126
O	20.07687251277119	-13.124068813672746	24.318022187542134
O	19.653954201886297	-14.527639224321312	24.406409237299588
O	18.251422362003986	-14.669652983418262	24.683168543019676
O	21.65008434131057	-13.378312605080819	22.566000764014312
O	17.363810195168718	-13.546508677023983	24.63303069012438
O	18.251330191411995	-12.593987755221914	25.247292388849754
O	15.915495007927923	-12.239410664404303	19.880106708127144
O	17.36611056444579	-12.24693342549477	21.422435640207595
O	16.836708308773964	-13.206909228336567	20.549413478607498
O	15.67823052316298	-10.865241213276137	20.206304850641775
O	17.357494221364412	-11.099284106262445	20.50749197389133
O	13.565014342928215	-11.333094278225142	19.939454301709386
O	14.409484574916316	-12.627257562234611	20.10318749547796
O	14.887678897003777	-12.965838862474975	21.58179249844295
O	14.308956450947676	-11.755348902335868	22.248875407179657
O	13.135750356034958	-12.475495219615453	22.840951501547504
O	12.099187441379282	-11.309896297455769	22.59843168883247
O	11.228555149256003	-11.017017787176579	23.724454392476208
O	16.533348320898423	-14.424646893633838	21.166850496181134
O	16.87792515620741	-14.769186354178174	22.445160194293464
O	16.73316780887942	-13.67109374665841	23.325073025916875
O	17.46879626793548	-12.659527704327356	22.660506345013527
O	20.297876554244812	-15.291334639826752	23.291889245310823
O	22.742456963661454	-13.86610856739135	23.512812373908222
