27

O	12.205265072298724	-10.732737868891833	22.92204953215266
O	13.214439240223955	-10.5585068239238	22.104064779500167
O	14.36360981397217	-11.341518763337575	21.71645230457199
O	14.336561766883	-12.694837357344237	22.348527462330203
O	12.9038454763005	-12.951033515539837	22.464043163236575
O	11.912254173834722	-11.927399622132407	22.36487358955904
O	15.795219562071551	-11.567668670232361	21.23502567269177
O	15.32904220797401	-12.698683985820253	20.31238200507135
O	14.178326999670059	-12.745560717417078	20.804519924461978
O	11.308195596354784	-10.500577358664698	24.011215794126507
O	10.586991730091846	-11.416763231429726	24.663331984920326
O	10.563558755545746	-9.405364079013408	24.423870402569218
O	16.52751633937725	-13.262459499407523	19.65443142673093
O	16.789405796647824	-12.15494070775788	19.148287873418905
O	17.70667261769591	-13.662961910867471	20.436925033865908
O	17.13838980425645	-14.180590053270686	21.71042014298454
O	18.277325997561338	-15.012674458498054	22.229513570662178
O	19.175751064219828	-14.042722463624447	22.93185444416738
O	19.215197859204444	-12.757313556121991	22.19543039128566
O	18.794158511927286	-12.743681861643175	20.76613731927705
O	18.72866365849362	-13.982917745444574	24.362043577553028
O	19.9520663742642	-14.21025491018403	25.199348857667072
O	20.083034062742396	-13.42519580865758	26.321157806635558
O	21.307754353434234	-12.931683470439179	26.759511463019386
O	22.431739143041213	-13.185151561167208	25.98129787177912
O	22.370714760253982	-14.361821317473645	25.243075155698847
O	21.151430768639543	-14.63130749714065	24.634060570835164
