13

O	18.60479271345519	-14.739930751162595	23.70675375775953
O	20.04854110381688	-14.678325593805006	23.54678178374811
O	18.16752797996836	-15.426632715991854	22.649013271252464
O	20.731769705363753	-15.848596857947518	23.089221225349647
O	18.80472987956587	-16.59358009477834	22.143236549720303
O	19.89494123225774	-16.96530317951026	22.93529600008381
O	19.19620523320503	-14.841303923308553	26.190108067643433
O	19.770582081289696	-17.684877744846148	25.657169307990056
O	18.266968125237202	-14.358584637148471	25.05006115400788
O	18.028072562045185	-18.39644062413062	24.14245359874451
O	18.32227373659396	-13.052599288135038	25.553635878120332
O	17.459937438819193	-15.55552070157607	25.439936150209217
O	20.031834390823047	-18.401428102868966	24.05313315085402
