39

O	15.734840977188638	-10.515738936897613	19.96369242082888
O	19.899207053897936	-12.658346326779881	19.33346576798705
O	15.966014286222014	-12.759988531737864	19.40351237231516
O	18.714281450859243	-11.724748493085135	19.102919886283914
O	10.347854224165156	-11.230350491601037	24.588296642606473
O	16.77351582897823	-12.456110438149647	22.789668317998995
O	17.878808789839752	-11.836973157700657	20.37536735672969
O	10.44083706788642	-9.031386092562634	24.347211974013128
O	15.166063915968039	-17.963914632152438	21.45402174055862
O	16.459968298467746	-11.724466354732812	19.899905405302192
O	18.04026694523271	-13.104142200508964	20.899690827427488
O	15.150885361078556	-16.949073265823888	23.59113732173002
O	14.364589254217877	-10.609226494315562	19.458928889823447
O	16.31852363498344	-15.695110640116132	21.400304818230236
O	13.500962400414018	-10.754910465723489	20.63734772622554
O	13.30884152211591	-9.601154799115603	21.333987339314724
O	12.468129357876325	-9.430759318599993	22.39249812070669
O	11.903612488335703	-10.523561223223098	22.961345497514394
O	11.071295035598762	-10.300151062620532	24.115511531323616
O	12.251569550093656	-11.681188846544876	22.356223365343006
O	13.263650524484337	-11.855594707583954	21.408820337700803
O	18.271449077444117	-14.24685005847125	20.01101732695368
O	17.09591966600117	-13.361374326597417	21.94806301803842
O	16.137568519773048	-14.443421332589516	21.997456564395137
O	16.367796991512684	-14.938084292871139	23.434179623872488
O	17.700542662019412	-15.56261729065183	23.440887345848417
O	18.78568753884843	-14.702637736909363	23.58850523637522
O	19.880171674390965	-15.291762450261515	24.214000860949984
O	20.12272981226976	-16.632024590665758	23.93095776324048
O	19.062255625766532	-17.43323367089687	23.506069504770117
O	18.10778112622131	-16.72293553800295	22.77126352457303
O	13.687049608070488	-15.65647773643509	21.64800692258766
O	13.493045940913435	-16.098699536171953	20.225848027456777
O	13.538300284982114	-17.468371453164934	19.99427417930826
O	13.978947375517343	-17.966414057709276	18.750601228683145
O	15.094739661808656	-17.24411760503523	18.29357224907625
O	14.861699076889785	-15.87158020470895	18.210618610325792
O	14.073697974744238	-15.36346042625123	19.240962019924336
O	15.08491226910467	-16.66252510426139	22.17416697760611
