39

O	12.453898592880115	-14.079232346775205	20.86607857703009
O	15.811296810671493	-14.686462193989103	18.52954027252009
O	13.390254957128253	-15.134188862809186	20.393673682291453
O	13.599476051619288	-10.348896099993286	20.09963689083488
O	11.964536858560685	-12.783388026973782	20.546813235543013
O	21.773722187492332	-16.306538797072683	21.81565199008518
O	17.75468959685002	-15.81851949074751	19.20626386743305
O	12.624317997113522	-11.502904355441895	21.053437808916648
O	19.300114539626826	-15.960762570370692	16.866918355814096
O	18.387662315831577	-17.465444011835984	22.177230710732058
O	13.667619668182413	-11.711143798403256	21.950202917332597
O	13.00575438967078	-12.589966608500577	22.755983869894447
O	12.368484610831645	-13.763775288050129	22.2623349752824
O	16.22915017115901	-12.247117767106396	21.99160580338183
O	14.914490229992204	-11.444513358206187	20.092829150158707
O	14.985837403227908	-11.772723915939103	21.4485269274864
O	15.576268181606364	-12.368492293190648	19.06358668849898
O	18.10796360282134	-13.880861544145098	22.204381638019644
O	16.852544307268133	-12.493757926551798	19.423967157290473
O	16.723329184841255	-13.61695834572759	22.0679560957645
O	17.728688500971337	-13.487387538924917	18.89418392106678
O	16.092696318439216	-14.799373446731126	21.801864353980775
O	17.177550047154565	-14.700174839059688	18.58163020998744
O	21.90873744538562	-15.879492631664782	19.52127602572145
O	17.85742030052686	-16.19459411185005	22.430951196158617
O	15.150874396565293	-13.484593960073507	18.352355950229708
O	18.57755391762484	-15.063884705080762	22.706054767426522
O	20.163649387193747	-14.839503474029886	16.935644280004407
O	21.025741937926778	-14.842110122514928	20.219424531529892
O	17.96361071418162	-17.06364953799373	18.623270369633346
O	19.678514405772972	-17.547251474872315	21.574352952102867
O	21.759605865053608	-14.89148418306319	21.56473906766812
O	21.825739096579433	-16.998835425778616	20.55375402858742
O	19.33321461916951	-16.311210176179166	15.481663399976274
O	18.954956017038437	-14.97281397931547	14.842054559560491
O	19.693744110492755	-13.998109123428295	15.753051458999533
O	16.522581361127	-16.043997878191696	22.173883483908597
O	20.54021618852421	-16.65036394025931	22.458080146306138
O	19.237135810492816	-16.972851700404913	17.831721509110395
