42

O	15.731699470589348	-16.473465832613584	18.64269082793352
O	13.3457818022261	-9.46855035094406	17.825049463525257
O	15.252079958913754	-10.153359338493473	16.83214457646174
O	14.74017729228583	-14.361997540451624	18.50691825191388
O	15.701897735424478	-15.184994439174048	19.138681671113766
O	15.250514563846263	-12.927707636802463	18.356773338630266
O	14.336642874648842	-11.864794929485939	18.80765617364999
O	14.658403896123009	-10.607747516774328	19.417696843084382
O	15.869882697553951	-10.738712249770803	20.09977337482992
O	16.58729280736315	-11.982962195759045	20.218978917330332
O	15.87415487606865	-12.734565759610174	20.952332530672177
O	18.038514353038828	-12.018948444012313	20.471636936347878
O	18.883636672872726	-12.166135814153868	19.247064727820813
O	19.9092354115481	-13.248698616383201	19.542204851361255
O	19.74013423471298	-13.434979997850743	21.02149464630427
O	18.369267970425827	-13.131068076731328	21.308973721851057
O	17.508733059930606	-13.452363263062153	22.404701326544576
O	17.011911938817143	-12.584562023386567	23.185322409779445
O	17.73096423732867	-14.752225244888301	22.973444036446384
O	18.451053187914294	-14.802070140143	24.182597017401324
O	16.67838064376745	-15.68612331932902	23.10541407554551
O	17.302950111582295	-16.976840901910826	22.695182793600114
O	16.382813526018726	-17.172759684761772	21.622985017164368
O	19.79825074885116	-14.317727745931318	24.459631403237122
O	20.767311419665674	-15.325701789810802	24.41430006496307
O	21.674065615777657	-15.665302287711484	25.38080316810771
O	21.596771905803607	-14.990756953992491	26.593412062722326
O	20.97662535663932	-13.742082307278768	26.559018268568437
O	19.93663181247194	-13.63378400020041	25.67713938306597
O	17.99211608222819	-15.607506154395377	25.304035702845912
O	18.240384040179656	-15.01161519783147	26.562099675426936
O	18.336297984212003	-15.737314374942883	27.739852510179137
O	18.77249016085534	-17.028542317804867	27.647484102724018
O	18.903901208198036	-17.61444629915664	26.418974400260385
O	18.65398879196436	-16.847241702942995	25.31501994972141
O	18.50948808479549	-16.721330156713474	22.039320455537798
O	18.408867113715104	-16.423624545270666	20.641503381204245
O	19.65096749598507	-16.618201776267615	19.843846455602396
O	20.84048641466719	-16.4026388725815	20.504491860843228
O	20.911789509290173	-17.16766283452253	21.640939335053382
O	19.609599976534767	-17.550350451021377	22.241538915867082
O	14.678574581132072	-9.620219178409357	18.12303648419442
