36

O	15.457160334467304	-10.546476042116199	19.868991876560468
O	18.366997758734954	-17.127037515203597	26.260241666212
O	14.141851665003799	-10.542385038405694	20.57265444656671
O	18.49852196019446	-17.792526260270208	23.961402720311398
O	13.118093628548895	-11.459993791263702	20.0075340505288
O	12.501943311719167	-12.024236041304498	21.218506627331514
O	11.909739197003761	-10.983164070623458	22.05275932175287
O	12.15855190914846	-9.654673888376326	21.472205559761978
O	13.57275055225589	-9.458205111701135	21.258849290504976
O	11.292195250248279	-11.187121339587604	23.325609659553006
O	15.861650680690644	-11.744438341311024	19.703254567423446
O	11.018530031316907	-12.408199005122109	23.44291468178606
O	10.847429160741253	-10.331552330995505	24.315258681427494
O	16.755629797498056	-12.263036185453975	20.638714534048614
O	16.60301442215092	-13.523509203647157	20.334250627451738
O	18.10492467899516	-11.575812011533717	20.67464181936349
O	18.43631376538827	-11.65870248727192	19.194011450859165
O	17.662322796580764	-12.609568820710473	18.605412355695954
O	18.717709580702017	-13.70208905473126	19.01641709035917
O	18.911607345910586	-13.75147885022463	20.438175370267377
O	18.882092144128634	-12.706933356846255	21.228494967477545
O	19.087361261351585	-14.908687803442726	21.164697020868065
O	18.43879043874336	-15.927842928971241	20.809490777218624
O	19.312021364518664	-14.561076191855983	22.428387439383727
O	19.23138916523015	-13.202385290924273	22.375583295985447
O	20.199070925475514	-12.730742639425463	23.05991179649284
O	19.993792889554783	-15.600825140162016	23.10638607341941
O	20.01178045243567	-15.759848423007057	24.578746326410158
O	17.589052433408646	-15.272571054213476	24.50297482571314
O	17.927975778914195	-13.985892053041523	24.738767319596903
O	17.049435710616677	-13.044760020612237	24.034695661563102
O	15.729988206925574	-12.951684583666047	23.299209236134217
O	16.02113158353593	-14.354968040751379	22.917546302670942
O	16.973743181106347	-15.369472569293038	23.323712463788787
O	14.682075859013842	-11.555564325832773	23.702078689927696
O	18.533851783149984	-16.634400360341196	24.897474348746993
