22

O	18.152627504878616	-11.695795010627215	20.64722081784556
O	18.502547426989757	-12.995623780794931	21.143976273314006
O	19.16970285731169	-11.36502116882642	19.53715713461708
O	20.206389325373028	-12.450695561003045	19.57565073999375
O	19.409259747294062	-13.566201611727031	20.187426568935997
O	19.433718504046627	-14.446777592025766	23.05193660912728
O	16.81765453866663	-11.802888368857227	20.02276282591438
O	10.939228124645277	-10.798994968578029	23.927608533963273
O	18.599794963421207	-13.328465598426007	22.50591414778131
O	19.33851837415933	-15.570921714563827	22.02654841153115
O	16.354748531110005	-12.834212172268145	19.49544055876218
O	15.989424575245405	-10.662863251236185	20.107030648097577
O	14.65702405054998	-10.714773313477673	19.574164495176163
O	13.64920921630354	-10.852285968116718	20.644734528968083
O	13.345406088494638	-9.748694385415	21.377681211793206
O	12.468400789308648	-9.718459813717487	22.4214521676584
O	11.957835821054875	-10.867850535408799	22.92464083881195
O	12.442075506332635	-11.974837447673831	22.309962317155918
O	13.404584875142367	-12.00065994374575	21.338062751117064
O	17.63589520774132	-12.971858458733138	23.250272607869178
O	10.50454626543597	-11.859116346823336	24.46841543818403
O	10.48692792015798	-9.692261177343118	24.658310428322007
