85

O	-1.4323248605925933	-1.983982306475926	3.12177086037037
O	-1.1019928125925933	-3.3417906364759262	6.02202498037037
O	-0.7158687655925933	-1.9001395364759261	6.163228590370371
O	-0.17247847759259338	-1.662902573475926	7.56932971037037
O	0.1529965024074067	-2.937939526475926	8.29012357037037
O	0.9948148024074066	-3.774570496475926	7.36906260037037
O	0.16655087240740674	-4.129716056475926	6.169915250370371
O	-3.0019136975925935	-3.704851256475926	4.456897350370371
O	-1.5995107655925933	-3.7139078164759263	4.658416380370371
O	-0.8125464245925933	-2.952365846475926	3.6688719703703705
O	0.16317438240740678	-3.6720165764759263	2.9456244803703706
O	0.8253484324074067	-3.4213541164759262	1.6898194772603705
O	-0.15391240759259328	-3.5364346664759263	0.5914790703703705
O	-1.0800378675925932	-4.388568046475926	0.6934807103703706
O	-0.24228325759259328	-2.414446536475926	-0.29474829962962956
O	-1.3618416042925934	-2.477607176475926	-1.2336407196296295
O	-2.355197097592593	-1.499267597475926	-0.7616101596296296
O	-2.303984577592593	-0.23980958147592601	-1.2700947196296295
O	-3.2618125775925932	0.7114122435240741	-1.1137931496296294
O	-4.445088637592594	0.4318484735240741	-0.5289207796296296
O	-4.451201227592593	-0.813204407075926	-0.008328749629629373
O	-3.629215937592593	-1.8511436964759258	-0.43548341962962933
O	-5.290797917592593	1.560903233524074	-0.23273667962962952
O	-6.472564297592593	1.3310529235240738	0.14710224037037056
O	-5.2901203975925934	2.770364823524074	-0.9580230796296294
O	1.7082175424074069	-4.619145466475926	1.8954150673703705
O	1.0065821524074066	-4.8250941564759255	3.2071726403703704
O	-3.3298262175925935	-4.781041346475926	3.5239901303703705
O	-4.770873607592593	-4.865005436475926	3.2182295903703704
O	-5.579156927592593	-4.816242176475926	4.16450065037037
O	-5.239906427592594	-5.390153426475925	2.0359822783703705
O	3.1033458124074063	-3.5315446664759262	-8.52892437962963
O	3.1812845624074066	-0.06783514047592598	-9.98366317962963
O	7.449045552407407	1.093086513524074	-2.8060963596296298
O	9.883453442407406	-0.913907893775926	-0.6909187196296296
O	7.049279452407406	-3.316512566475926	0.13095958037037048
O	6.762693062407406	-4.208110626475926	-3.5678690396296298
O	10.197966042407407	-5.7978537364759255	-3.317180819629629
O	10.690503342407407	-6.717285896475926	0.34179236037037053
O	8.200276192407406	-7.916003426475926	2.9220247403703707
O	6.246034682407407	-11.518879766475926	6.939178050370371
O	4.958034392407407	-12.809873866475927	3.6411079603703707
O	8.292552082407406	-14.206240866475927	2.4772250053703706
O	8.604650482407406	-11.512931566475926	-0.16530474962962938
O	8.484954852407407	-3.366096596475926	7.49521534037037
O	5.730334792407406	-1.999517866475926	12.30032062037037
O	4.115095482407407	0.49992864352407407	10.00284557037037
O	5.837959872407406	0.538377653524074	6.606738740370371
O	7.620693752407407	3.777756313524074	7.52169925037037
O	9.916506742407407	4.933819483524075	4.68333816037037
O	8.196617992407406	2.687813333524074	2.1281244603703704
O	-2.536179037592593	1.842250713524074	-11.73622477962963
O	-3.6010003475925934	-1.5605211434759259	-13.04884297962963
O	-4.705612567592594	-2.823675106475926	-9.65796557962963
O	-8.018617297592593	-4.344846066475926	-8.68288107962963
O	-11.690169657592593	-4.887100986475926	-2.7140524996296294
O	-13.302396857592594	-8.232395256475925	-3.246827979629629
O	-1.3953652875925933	1.957711403524074	12.83780812037037
O	3.3616809924074067	9.241092933524074	5.17716207037037
O	0.3139307224074066	11.194784433524074	4.138210830370371
O	-3.2270039675925934	10.028552933524074	3.4713788803703705
O	-5.687631267592593	10.889231733524074	0.7001599173703705
O	-9.289017697592593	10.075619333524074	-0.16505751962962956
O	-8.901727517592594	4.520258473524074	-3.7566456596296294
O	-5.879951087592593	2.4950376135240737	-4.73112215962963
O	-6.137883487592593	-1.269227135475926	-4.21636118962963
O	-4.103509697592593	-4.470489496475926	-4.667624569629629
O	-1.8377291505925935	-4.143491006475926	-7.66846389962963
O	-1.6132560815925934	-0.326723360475926	-7.440073379629631
O	1.0413705824074069	-0.528961755475926	-4.718150229629629
O	4.243150892407407	1.371244183524074	-5.60743503962963
O	1.0183833524074068	4.145628743524075	-3.08340442962963
O	2.0038880924074065	2.453222393524074	0.22125419037037042
O	-0.8027845095925934	0.937517573524074	2.2353402113703704
O	-4.402545407592593	0.9083701935240739	3.4059037603703706
O	-7.1237516075925935	-1.098211169475926	5.13442845037037
O	-9.293605367592594	-2.730067786475926	2.5112008773703707
O	-9.964597297592594	-0.539255793475926	-0.5399124096296295
O	-13.892831857592594	1.719475953524074	2.5940755183703708
O	-10.548498747592593	4.722467773524074	5.714009360370371
O	-7.916513467592593	6.540443203524075	3.6016504003703704
O	-5.1096840575925935	5.411164383524074	1.3275100313703705
O	-1.6532223585925934	6.000341313524074	2.737614620370371
O	1.2055950624074065	7.296239923524074	0.6331933803703704
O	4.925803402407407	7.556123393524074	1.1095321713703705
