86

O	2.5125968071698113	5.720773325754719	4.533940117207548
O	0.43945957316981127	5.661478325754718	4.023296437207548
O	1.7152118771698113	5.169080245754718	3.7289649372075475
O	2.216017687169811	4.350866715754718	2.6600637872075477
O	1.3396711711698113	3.890644385754718	1.7373706172075478
O	1.7514213871698112	2.802923675754718	0.9708318172075479
O	2.9929781471698114	2.593559195754718	0.5057347632075478
O	3.894127067169811	3.343269935754718	1.1978460572075478
O	3.511287697169811	4.149508965754718	2.2819330572075476
O	3.2074451271698114	1.632186884754718	-0.5905216677924522
O	4.652455237169811	1.682585051754718	-0.8633646287924521
O	4.844439597169811	2.412157935754718	-1.996309932792452
O	5.221688317169812	1.449839180754718	-3.1763681327924522
O	4.227491067169812	0.381556258754718	-2.8244935027924525
O	4.889730137169812	0.3855259977547181	-1.3835565627924522
O	4.022908947169811	-0.7481320142452819	-0.9708968027924523
O	4.573590607169811	-1.635320674245282	0.11952197350754781
O	5.411648227169811	-0.7586383242452821	0.8384780492075479
O	4.508012897169811	0.314930894754718	0.8777081832075478
O	6.417000747169811	0.674960183754718	-2.9944004027924525
O	4.262927047169811	0.8054638217547181	1.9966351072075479
O	3.3122506871698114	0.17363220575471794	-0.10177731979245219
O	6.348258677169811	-1.2842232442452821	1.836491607207548
O	5.8256255171698115	-2.567993414245282	2.4028506172075477
O	3.7967097371698113	-2.275635174245282	0.9055137672075478
O	5.811310587169811	-3.7858910942452817	1.729038087207548
O	5.192330777169811	-4.861993914245282	2.3577283672075477
O	5.390414457169811	-6.210062164245281	1.9781902472075479
O	4.546025717169812	-6.874893214245281	2.8793970472075476
O	4.478423947169811	-6.062861404245282	4.0465555272075475
O	5.209912757169811	-4.936077214245282	3.7476426872075477
O	5.6066811371698115	-3.7931578842452818	4.382529147207547
O	5.507906877169812	-2.554547074245282	3.7556584672075477
O	-0.6571629128301888	3.887224705754718	-8.640771282792452
O	-4.083383572830189	5.1671743357547175	-7.801304282792453
O	-4.4176573328301885	-2.5858402742452817	-4.528647512792452
O	-3.0306143428301886	-6.006600044245282	-5.425334602792453
O	0.45994685916981126	-4.715015634245281	-4.706152412792452
O	0.07502941716981126	-2.153280174245282	-7.529594912792453
O	0.10898085216981124	-5.079056694245281	-9.910043942792452
O	1.9254545371698113	-7.9180329042452815	-8.148031932792453
O	4.843211477169811	-7.913737384245282	-5.7831272027924525
O	10.056900287169812	-9.533487684245282	-4.005958882792452
O	10.580349037169812	-6.560610844245282	-6.265864192792453
O	9.922651257169811	-8.436542614245282	-9.503257402792453
O	6.654885347169811	-6.573899244245283	-9.972892572792452
O	4.151401727169811	-8.442040214245282	-12.107416772792453
O	2.4489758971698112	-10.622030884245282	-0.4639587067924522
O	4.062077567169811	-11.619175184245282	4.921108597207548
O	1.9706192071698112	-8.522731964245281	5.5055882072075475
O	-0.022062811830188767	-7.630066514245282	2.3697367872075477
O	-3.1698771228301887	-9.181866984245282	3.8016299272075478
O	-6.086330712830189	-8.906183684245281	1.3254618572075478
O	-4.321612872830189	-6.188736034245283	-0.7212796467924522
O	-7.56233688283019	9.962203265754718	0.8505720372075478
O	-3.840302302830189	10.785757015754719	-5.037646352792453
O	-0.9898724128301888	12.052095915754718	-7.204641762792453
O	1.6917356351698114	10.544020035754718	-5.0474752127924525
O	8.853469287169812	11.003695355754719	2.036109617207548
O	3.977647367169811	-6.143279174245283	11.060568927207548
O	-8.652321902830188	-7.038476544245281	6.572193237207547
O	-6.685120692830189	-3.837160724245282	7.318390467207547
O	-7.378505772830188	-0.666579354245282	9.225310397207547
O	-5.1154567428301885	2.284457325754718	9.956685707207548
O	-5.739498142830189	6.037054865754717	9.814396267207547
O	-0.5874844628301887	8.807727325754717	1.7525506172075478
O	2.860334497169811	8.238567025754717	0.21632824320754782
O	4.534236357169812	6.695290325754717	-2.8366406227924523
O	2.2822728071698113	6.930297125754718	-5.866936492792452
O	-0.8876883328301888	7.005228225754719	-3.7517990827924526
O	-0.9969429428301888	3.262752655754718	-3.4331597327924523
O	-4.251074492830189	1.672061312754718	-4.6227108227924525
O	-6.263613922830189	4.869149655754718	-4.418744962792452
O	-4.290228402830189	2.7264882857547184	0.2050990672075478
O	-2.1531801928301886	-0.35611071424528196	1.0350912072075478
O	0.9915027921698112	0.1885018057547181	3.0532871372075476
O	3.0197937371698114	2.176857974754718	5.551776737207548
O	6.458686187169811	2.831664985754718	7.049074277207548
O	7.815764887169811	5.987880865754718	5.481835577207548
O	5.265973317169811	8.848262195754717	5.048092417207547
O	3.253862257169811	5.672484605754718	12.309292527207548
O	-0.1297894738301888	5.280954055754718	10.563690027207548
O	-1.1876609228301886	4.550044305754718	7.018746427207548
O	-2.6919288928301888	1.143226466754718	6.495322637207548
O	-5.717958622830189	0.540195943754718	4.313522907207548
O	-7.356095402830189	-2.520776494245282	2.8819294672075477
