30

O	16.680499518612674	-15.676218846660472	23.097470243054953
O	17.90997065278555	-14.886042782165443	23.077858142311047
O	18.098504397485716	-11.866007426264114	20.687655686206472
O	14.772893021826725	-10.368965879020617	19.48487001237328
O	17.65838043597118	-13.512670322605917	22.539519346329808
O	16.52496191169192	-13.019999331566844	22.826946191262408
O	18.42072683981682	-14.830652193756588	24.51228801685578
O	19.139406251969433	-11.708363547898209	19.61848996654571
O	13.68140511242719	-9.871634912729379	20.37547786726855
O	19.677827096158452	-14.068985095443193	24.641377456694933
O	20.21647489201446	-12.705634121326618	19.944969194941454
O	13.184943014584235	-10.988212176510896	21.248715227741314
O	19.447876301770005	-13.757062940488847	20.696943683591737
O	20.7543543679449	-14.213036120896497	23.776556307145064
O	19.936415244025337	-13.177010241455132	25.667400652554296
O	12.223350245902077	-10.409439824663103	22.24435019287574
O	22.031056980778057	-13.771596254139155	24.116994756066887
O	21.185331186441466	-12.799400751723667	26.075169760313123
O	11.791080459797843	-11.433319098539922	23.157048684587576
O	22.27262491185244	-13.227289383634666	25.350047470411397
O	10.99131532049555	-11.046369856955282	24.07707530037124
O	10.232794187635363	-11.880454953623593	24.906683232506488
O	10.554983696650647	-9.732894205604437	24.284809381681306
O	16.729602391782294	-11.859695789070427	20.13433685402524
O	18.38111132287977	-13.080758328756804	21.406061532455972
O	16.240756778509063	-12.8068104884076	19.453115118136232
O	14.852487814814861	-9.64488527675919	18.210703508625702
O	16.021673756374206	-10.643615591415408	20.13709047624929
O	13.691031386258144	-9.532811106445378	17.488612464844724
O	16.101527670036337	-9.670591765905435	17.407635924255537
