85

O	-7.1703124062909085	-0.8593736708000003	1.261062788472728
O	-6.815403616290909	-0.7974735608000004	-0.1557227545272723
O	-3.3672511362909088	-2.4049403408000005	-1.0122459705272724
O	-0.8942387612909086	-2.9939278308000006	1.890606718472728
O	-5.332813166290909	-0.9561464308000004	-0.29246179652727233
O	-4.651487306290909	-0.3789994708000003	0.6098182184727278
O	-7.303438726290909	0.5330246841999997	-0.6614469174272724
O	-3.212799836290909	-3.4865589908000008	-2.0435512215272724
O	-0.41358701629090877	-1.7494004108000003	2.574847328472728
O	-6.913160306290909	0.8261184582999996	-2.0511744515272725
O	-4.468892256290909	-3.5110703708000006	-2.8692002215272723
O	-1.4492297812909087	-1.1188310508000003	3.460192648472728
O	-5.486691376290909	-2.9061475408000006	-1.9437988315272725
O	-6.899587546290909	2.1285663691999996	-2.4730081815272724
O	-7.135035756290909	-0.12857978080000032	-3.005390751527272
O	-0.8122112762909086	0.14269566119999966	4.035803418472728
O	-6.546691216290909	2.4241052491999997	-3.782594311527272
O	-7.139718166290909	0.2187108111999997	-4.351769571527273
O	-1.8407672252009086	0.7621291045199996	4.830141598472728
O	-6.685571386290909	1.4487594321999997	-4.760978701527272
O	-1.6070397522909086	1.9180412591999998	5.310522228472728
O	-2.4670397972909086	2.4215503691999998	6.301130258472728
O	-0.3212425162909087	2.4583763791999997	5.439470778472728
O	-2.8664880662909087	-2.9202540008000004	0.2858243464727277
O	-4.768121896290909	-2.0742831108000006	-0.9917476115272723
O	-3.5671261262909084	-3.5190382008000007	1.1272090084727275
O	0.10782511370909131	-4.073022330800001	1.8282075284727277
O	-1.5040543432909086	-2.7195959908000003	0.5877716284727278
O	0.7646108337090911	-4.4343516508	2.770476288472728
O	0.21627715370909129	-4.8500539908	0.5570746584727276
O	5.884603103709091	-7.808126850800001	1.1306550484727276
O	8.72644065370909	-5.4196250708	1.7155952484727277
O	5.243800983709091	-2.1275350008000005	-5.213814441527272
O	3.5352073037090914	-3.4484390408000003	-8.337223731527272
O	0.6492973537090914	-4.6351486708000005	-6.161618871527272
O	3.0445446237090907	-6.974332240800001	-4.322162571527272
O	3.390757413709091	-8.9417916008	-7.548699101527272
O	0.24357955370909123	-8.2448351008	-9.574759101527272
O	-3.319689816290909	-7.6812292808	-8.445632271527273
O	-8.984539806290908	-8.6833318108	-8.405559641527272
O	-7.464949916290909	-11.0151138608	-5.857717481527272
O	-5.958137756290909	-13.400122660800001	-8.404195571527273
O	-2.4459756242909085	-12.270791260800001	-7.531682691527272
O	-4.691302826290909	-1.7501826308000004	-10.564553531527272
O	-8.862915866290908	2.0891850891999995	-10.130372351527273
O	-6.438711686290909	3.5975147291999994	-7.685240661527272
O	-3.0639612862909087	1.8278779491999995	-7.826728871527272
O	-1.5555684392909086	4.7047826592	-9.811567261527273
O	2.1190799237090916	4.0162622392	-10.648976841527272
O	2.414455753709091	1.2798583061999995	-8.015966961527273
O	8.948503053709091	3.6137433191999997	6.992723878472728
O	8.85259695370909	-3.3397670708000007	7.645581558472728
O	7.858386393709091	-6.6866675708	9.145094618472728
O	4.151557763709091	-6.109114470800001	8.671509278472728
O	1.3862873137090912	-6.3573100808000005	11.225545958472727
O	-4.981373666290908	-3.4859631308	11.908647458472728
O	-10.047634236290909	7.2792454291999995	-3.965986661527272
O	2.4216636937090907	9.7752809392	-8.563133191527273
O	1.3380430637090914	9.333091139199999	-4.916958061527272
O	1.9137861937090912	11.205320539199999	-1.7023348915272725
O	0.5110165437090914	10.5957228292	1.7690384684727278
O	2.1678809537090915	10.640829349199999	5.190618358472728
O	1.0523325437090911	10.2639918492	8.796111948472728
O	1.3864815637090915	3.7507684091999995	9.953649358472727
O	2.3557349337090914	0.9634518331999996	7.633729178472727
O	0.06868784370909142	-2.0881233308000007	7.631808588472728
O	-0.3732709362909086	-5.4859011608	5.943494988472728
O	3.041698763709091	-6.9799582008000005	5.218667608472728
O	4.7542959037090915	-3.5584862408000006	4.9434089884727275
O	3.556361093709091	-3.1034733108000006	1.3667772884727278
O	6.370264743709091	-2.4543587608000004	-1.1120785875272723
O	4.4283703537090915	1.6956510931999995	0.7440238684727277
O	1.4236097037090911	1.4768875711999998	-1.6106949715272725
O	-1.9705283692909086	1.5817248011999996	0.06284117747272766
O	-4.262944986290909	2.7747121491999995	2.801796858472728
O	-7.632569176290909	2.2982076892	4.470428468472728
O	-7.105065456290909	0.1679678971999996	7.526018558472728
O	-3.9583874062909086	0.9361800261999996	9.507917158472727
O	-6.894314386290909	5.045072289199999	11.683687158472727
O	-6.619747426290909	8.3789438192	7.364204988472728
O	-3.0767714262909087	8.5329238892	5.910315158472728
O	-0.7601808062909088	5.9889288392	4.341476578472728
O	-0.22751896629090873	6.4201218992	0.6455506084727277
O	3.1448679937090915	6.0662665892	-1.0160373905272724
O	4.311866233709091	5.749213249199999	-4.567222691527272
