83

O	-2.682435956701961	2.235241390727451	1.2620690167843132
O	-1.6349736537019608	2.662184100727451	0.5423692667843132
O	-1.2681378847019609	4.4843275907274505	2.1377787677843134
O	-2.423953715701961	3.973104190727451	2.616657607784313
O	-1.067506262701961	3.888921100727451	0.9649325748843132
O	-2.6590554727019606	2.551315690727451	2.5876468377843134
O	-2.588405428701961	-1.691264329272549	3.561705657784313
O	-3.9214399467019607	-1.327762869272549	3.331291087784313
O	-2.9459568667019607	-0.836327859272549	1.242401053784313
O	-2.7549518197019607	-2.267175159272549	1.215676202784313
O	-4.025105776701961	-0.5150058392725491	2.140373187784313
O	-2.2120393887019607	-2.526247099272549	2.506600347784313
O	-4.511407106701961	0.770839461627451	1.7717272557843131
O	-3.5860367467019607	1.366176169727451	0.7390069617843131
O	-5.642363886701961	1.4571553727274509	1.2339635907843132
O	-5.997793256701961	1.133541679727451	0.039082351784313074
O	-6.728122556701961	1.300456929727451	2.098310557784313
O	-0.6193857967019609	5.637276620727451	2.6673210477843132
O	-1.006833632701961	6.062624540727451	3.7957669477843132
O	0.6555215632980391	6.1606998207274515	2.449334777784313
O	-2.888240096701961	-3.4974558692725486	0.515364395784313
O	-3.062005786701961	-4.733555859272549	1.4014558537843131
O	-2.2468798187019607	-2.373021949272549	4.638120567784313
O	-3.2799606167019606	-2.995729109272549	5.404737067784312
O	-2.634685646701961	-4.047122909272549	6.239889377784314
O	-1.153080625701961	-4.233785059272549	6.225317577784313
O	-3.044253056701961	-3.819590869272549	7.663551257784313
O	-3.148641956701961	-5.273631579272549	5.5903887477843135
O	-4.59655030670196	-5.116909299272549	5.4407198477843135
O	-5.057288726701961	-4.177227549272549	6.4657900477843135
O	-4.93100476670196	-4.456640269272549	4.180842447784313
O	-4.303889696701961	-0.44696293927254904	4.3577341477843134
O	-3.6266093367019607	1.791412067727451	-8.862444112215687
O	-0.429369536701961	3.540907370727451	-9.871527802215688
O	2.775706243298039	-3.323672499272549	-6.263351202215686
O	1.824193223298039	-7.002096289272549	-6.118793912215686
O	-1.2772125957019609	-6.022091669272549	-4.154982842215686
O	-2.530433300701961	-3.973092339272549	-7.137021882215688
O	-2.939134016701961	-7.242313899272549	-9.006047032215687
O	-3.350455736701961	-9.976468879272549	-6.390644612215686
O	-5.08455769670196	-9.893171079272548	-3.026992962215687
O	-8.84945530670196	-11.556083879272549	1.0377166727843132
O	-10.734234956701961	-9.281413979272548	-1.2613559322156869
O	-11.002669826701961	-11.693132179272549	-4.185050172215687
O	-8.613887276701961	-9.538142579272549	-6.217106122215688
O	-0.4863450767019608	-11.11359857927255	1.2835412317843131
O	0.08150269329803916	-11.032581279272549	6.9655486377843125
O	1.826856383298039	-7.82361829927255	6.144399347784313
O	2.340407173298039	-7.401401979272549	2.400396517784313
O	6.0113286532980394	-8.429950669272548	2.6096598877843133
O	7.66135522329804	-8.35455503927255	-0.874595002215687
O	4.850556053298039	-6.221851999272549	-2.364289072215687
O	-0.39349508670196087	9.509452280727452	-8.086681282215688
O	-4.054207986701961	10.076352150727452	-8.924644082215687
O	-5.29547005670196	8.715351550727451	-5.618248532215686
O	-8.510198516701962	10.10482876072745	3.711613537784313
O	2.019159583298039	-4.782864639272549	11.695021797784312
O	9.77903433329804	-2.245957889272549	3.529355267784313
O	10.72586053329804	1.2873923417274509	4.476469067784313
O	8.533730033298038	4.108461460727451	5.741918817784313
O	8.40863753329804	7.800065470727451	4.848580857784313
O	6.486108223298039	10.840983520727452	6.040085717784313
O	0.027247913298039217	8.65798672072745	-0.49800435221568695
O	-3.604967896701961	7.485294460727451	-0.1988223322156868
O	-6.182787406701961	5.143106790727451	-1.8713728222156867
O	-5.547704646701961	4.992116170727451	-5.554753162215686
O	-1.8254685509019608	5.789854350727451	-5.159754052215687
O	-1.0837216277019608	2.120561910727451	-4.295163592215687
O	1.6682283632980393	0.7561957546274509	-6.677259642215686
O	3.5899720032980387	2.693772440727451	-2.5930153422156867
O	2.5932178432980395	-0.42401685927254895	-0.550358642215687
O	0.5411075232980389	0.2877314887274509	2.552682207784313
O	-0.4316341967019608	2.540497410727451	5.469112697784313
O	-3.1826273267019607	3.034176770727451	8.058125497784314
O	-5.481225986701961	5.7993445907274515	6.874267497784313
O	-3.736288866701961	8.705264320727451	5.016083657784312
O	-2.607232896701961	10.495677630727451	10.025785387784312
O	1.462864643298039	7.024844850727451	11.075164797784312
O	3.813738433298039	6.702706860727451	8.051423327784313
O	3.411213613298039	5.452069370727451	4.497610497784313
O	5.102728723298039	2.155998730727451	3.8487307577843133
O	6.993319933298039	1.419432913727451	0.6861197117843131
O	8.333320833298039	-1.699764009272549	-0.8771329022156868
