34

O	16.462782686583452	-15.105054753261712	23.09581577992568
O	17.794397625856107	-14.494719757067134	23.09862722530635
O	18.220458042616706	-11.712745354287637	20.562079426308483
O	14.754442389986217	-10.669160839884519	19.30010295352375
O	17.632034876680898	-13.154987984595529	22.5081749426304
O	16.61109088537685	-12.511430052018614	22.82185857761001
O	18.167371555800123	-14.324397066557749	24.537490264650238
O	19.25437133328881	-11.690667249207461	19.473658373550755
O	13.660553145927702	-10.090123503133153	20.14896998211504
O	19.549531540694158	-13.865537570478057	24.764657763610224
O	20.285696078762655	-12.690606085041575	19.932568714974956
O	13.069080010495181	-11.088713584944283	21.114724053266908
O	19.415392554596046	-13.68060230948695	20.69708564808065
O	20.55881730752981	-14.59822917064189	24.151774656524115
O	19.85097946295008	-13.42327828906787	26.04921940317176
O	12.319616095550778	-10.39489828033333	22.229501178074756
O	21.897626201718904	-14.30473523389382	24.36597771215097
O	21.153400224847122	-12.996224681006618	26.258281399812084
O	11.732264329858145	-11.352828664995487	23.1284235775985
O	22.172232864772376	-13.476326569812244	25.44520826932625
O	10.964168617011934	-10.926277014776124	24.062489208468534
O	10.24186167861179	-11.770994486549913	24.953972823235027
O	10.68567416155522	-9.55712916259005	24.30977681275243
O	16.259360894177714	-9.867875666290061	17.375690079313877
O	16.443262079023626	-16.47162989630037	22.73485980807902
O	18.478135139472716	-12.847034820540367	21.401824792090963
O	16.3418996407427	-12.960851072466612	19.68692066329294
O	15.138223116358594	-17.051452174718186	22.332870518895113
O	16.04401527356823	-10.722451233449213	19.998585122897083
O	17.370564332626472	-17.161338636642085	23.260644036474503
O	15.389115368791362	-18.180532457158378	20.937816747667295
O	16.872167619497223	-11.86618834381797	19.982020498519496
O	13.915780324300481	-9.744201607072888	17.358240793767877
O	14.906836185134793	-10.031734664538751	17.983573820361364
