55

O	16.261265231148574	-16.53417730827045	21.90620416481751
O	16.727798107650685	-15.388240990040085	21.33545018036497
O	16.273839413980042	-14.76623879888583	22.483792416580027
O	15.011387253136899	-14.347459380844612	22.884567193422093
O	14.367304096959362	-15.620140003448084	22.93118316524683
O	15.330602543938669	-16.810513340345544	22.90612296652244
O	15.311402772880525	-18.15026219363837	23.3547867827467
O	16.420187861596773	-18.459888476185164	24.185191014456073
O	16.48715702926732	-18.625374410060395	25.435951619222024
O	17.526348775537528	-18.16563159724375	26.29353188266384
O	15.698646580541116	-19.703737436611732	25.967506325302494
O	17.144434991351954	-15.01971161364232	23.560007245532894
O	16.950171368019497	-15.547381011488067	24.649586161810724
O	17.563350987365933	-13.81547438793151	24.067226397702864
O	18.639681333508914	-13.155190419490758	23.52518329156141
O	19.865932578925317	-13.634633515407298	23.098842030899085
O	17.867614192348704	-12.915885198607123	22.20543522486501
O	19.45448630090374	-15.032151763817518	23.182945252975223
O	19.449761044377517	-15.578935756273722	21.928024432951652
O	19.618132947373926	-17.021188448035602	21.86219835411594
O	19.30355868519056	-17.527055603625872	23.194328802389222
O	19.938417198031342	-16.992562907252953	24.398124237993585
O	19.709485339532076	-15.516769244953887	24.483367079653906
O	17.00884216980015	-12.174793861658754	22.689339883766895
O	18.51896498644158	-12.958924145884197	20.99329287215887
O	19.852902427923805	-13.01739960176519	20.38756209906054
O	19.052944612462	-13.049012346424444	19.084020300686685
O	18.333159486551995	-11.969505374429952	19.91205040897796
O	16.921244671947036	-11.904171156963848	19.645968444278925
O	16.2242752402518	-12.08717873691027	18.64903358158501
O	16.192686663232763	-11.571119967108105	20.75029745836981
O	15.12663749969241	-12.392901454695021	20.947496702451534
O	14.164855596115661	-11.650554927033975	20.080957490338157
O	13.056079663084384	-12.193456633809781	20.892454647065794
O	12.734032358761164	-11.170419052127608	21.791759706954256
O	11.476399921743564	-11.267431389843843	22.429277128942495
O	11.179759924086909	-12.595079357540389	22.678305442652672
O	11.322324374841681	-13.420333928352562	21.609419979316332
O	12.027940415087965	-12.983135717499177	20.540634550437073
O	10.312014067597989	-12.845358641423642	23.659161775543478
O	15.077156554670056	-13.398100029563679	19.92785296803031
O	16.057107379540042	-13.94253690868186	19.444920043491027
O	14.10424910432081	-14.346716947831808	20.200164557774627
O	13.95952229547206	-15.60400220668561	19.85393848995378
O	13.62985190527529	-16.944122226056987	20.086596675394276
O	13.784138063845262	-17.745961450719246	19.106257936173627
O	12.853332700725007	-17.651787253637735	21.060312123717193
O	14.94055277231853	-15.625212169265001	18.763750764737328
O	15.850489311043571	-16.538346171390828	18.7368495941771
O	16.861178989037192	-17.533395533033357	19.060889614523713
O	16.472565377641693	-18.6073575667415	20.081140670733273
O	17.538436507598973	-19.267792673910577	20.74674924331361
O	17.27781247838562	-20.1403356462354	21.638127729893345
O	16.018298794521815	-20.776846682053772	21.656423588344836
O	18.19651493778377	-20.567542327007224	22.652132425547673
