90

O	-3.6846365358749997	4.891477569995832	-6.0308737209166665
O	-1.3220902248749997	4.389237189995832	-5.924198260916667
O	-2.0916247918749997	0.6440240199958323	-7.1715846309166675
O	-0.2867854058749997	3.623972629995832	-6.472003500916667
O	-0.5131996558749998	2.335706732995832	-6.956372270916667
O	-1.7966292202749998	1.9701921539958323	-7.108534540916667
O	-2.733792461875	2.9794833969958323	-7.313921020916666
O	-2.526075213875	4.040798219995832	-6.478395110916667
O	0.996255254125	4.237269109995832	-6.8895551109166675
O	0.5084550941250001	1.3381899699958322	-6.5947653009166665
O	-3.2044573358749995	0.3926114299958323	-7.962792870916667
O	-1.037058427875	5.914952639995832	-5.224272100916666
O	-2.081585315875	6.8579055699958325	-5.8283790409166665
O	0.24325197412500033	6.451942979995833	-5.782552410916667
O	-1.2595002088749998	6.303399279995832	-3.5520352309166667
O	-2.528516344875	5.779617249995832	-3.3233614109166667
O	-3.797220935875	6.419582739995832	-3.0746757599166665
O	-4.802314725875	5.402844939995832	-2.622032388916667
O	-5.695783685875	5.146846289995832	-3.495183830916667
O	-5.338929105875	5.657971159995832	-1.3464400139166668
O	-2.407035131875	4.691087299995832	-2.3033116659166666
O	-3.214329795875	4.131077289995832	-1.5682081959166667
O	-2.068721545875	3.8434773599958323	-3.373644790916667
O	-0.9668529408749997	3.117497890995832	-3.1921125709166667
O	-1.6705801399749998	2.283814181995832	-2.0566567359166665
O	-0.5306358858749998	2.143882196995832	-1.7096831939166668
O	-0.14810316587499983	4.148034989995832	-2.3898941139166667
O	-0.6716747358749997	4.265902829995833	-0.9734683409166667
O	-0.6719511958749997	5.474294949995832	-0.23578597091666675
O	-0.2894178958749998	5.456903639995833	1.1673711790833332
O	0.6772782541250002	4.678222709995833	1.6893151490833334
O	0.07376282412500013	3.5019147769958323	1.3645269290833335
O	-0.8010127038749998	3.445619498995832	0.2059860290833333
O	1.7213353641250004	5.246983629995832	2.4728351590833335
O	1.9021895341250004	6.507445109995832	2.527331999083333
O	2.809864024125001	4.810285309995832	3.2474695690833335
O	-2.613644724875	1.4435118299958323	-2.6140453279166667
O	-4.012130485875	1.3157411699958321	-2.358904684916667
O	-4.910950255875	2.0121061929958324	-3.310520020916667
O	-4.357386125875	1.8636704099958323	-4.680306320916667
O	-3.580896315875	0.5809714099958323	-4.615566730916667
O	-2.281934356875	0.8446793199958322	-3.9380938609166667
O	-5.983632955875	-3.294172130004168	6.757730489083334
O	-3.1475748858749997	-4.445605520004168	8.951434349083334
O	-0.5409023858749997	-7.111043560004168	1.3742642990833334
O	-2.154450742875	-8.563790060004168	-1.7412881259166666
O	-3.8137829158749996	-5.242166900004168	-2.3134300799166665
O	-5.685183395875	-5.558443960004167	0.9975746290833332
O	-7.615453305875	-8.410056060004168	-0.5876714509166667
O	-7.500949105875	-7.8740016600041685	-4.3468283909166665
O	-7.519153145874999	-4.7017747600041675	-6.391211840916666
O	-9.450025545875	-1.0070786400041678	-10.436768540916667
O	-11.384631525875001	-0.2678841600041677	-7.326562930916667
O	-13.583848295875	-3.3818962600041678	-7.515999480916667
O	-11.871317495875001	-4.930121990004168	-4.508723140916667
O	-1.8827892758749998	-4.9482182200041676	-9.592413750916666
O	1.0450733841250004	-1.1479838800041677	-12.878384150916666
O	2.840488944125	-0.6407720700041679	-9.665142600916667
O	1.805949614125	-3.2088570100041673	-7.058830100916667
O	4.899572814125	-5.302600150004168	-7.684152450916667
O	4.9030572741250005	-8.464956460004167	-5.4628721809166665
O	2.311916274125	-7.057252950004168	-3.0504843589166666
O	-1.0550115248749998	0.16440371999583236	12.645967249083334
O	-4.511711235875	1.5964145259958322	13.309828849083333
O	-4.543450475875	3.699284919995832	10.167455649083333
O	-3.484747855875	12.369980549995832	5.216768799083333
O	5.926586354125001	4.809601919995832	-10.457846060916665
O	10.058291604125	-3.1058942500041677	-2.9400199909166664
O	12.058434404125	-0.9436751400041676	-0.5664351609166667
O	11.290665404124999	2.5235432031958323	0.7598554290833333
O	11.572956304125	4.061320549995832	4.223058599083334
O	2.113097384125	4.809269449995832	7.234193739083334
O	-1.2469318318749998	5.960865549995832	5.872488299083333
O	-4.705974975875	4.631972129995832	4.9172923590833335
O	-5.608179015875	1.721137436995832	7.162643199083334
O	-1.9608406598749997	0.7655547999958323	7.8234318490833346
O	-1.7384804778749998	-1.143594740004168	4.554726989083333
O	-0.6554522358749997	-4.770065170004168	4.936456409083334
O	3.1557633841250006	-1.6901972900041677	4.188508839083333
O	2.4275765241250005	-1.5591370500041677	0.4461293690833332
O	2.196330224125	1.8130368819958322	-1.2440362079166667
O	2.9693534941250004	5.687764749995832	-1.1746583209166666
O	1.815451884125	9.091633769995832	-2.5439686379166666
O	-0.24773067587499975	10.872910809995831	0.12264196908333336
O	1.0253438441250002	10.358664559995832	3.7248859690833336
O	7.977060734125	11.176202249995832	-0.5449746609166666
O	8.689512604125	7.789916179995832	1.0972986190833334
O	6.566747464125	4.839407559995832	2.1141591690833335
O	7.023563194125001	1.7615772519958321	-0.012959880916666666
O	7.219412834125001	-1.7332227300041678	1.4468673790833333
