73

O	-2.4211953613482144	-3.499337701324999	-4.161809823071429
O	-3.2341634813482143	-4.490793531324999	-4.764221323071428
O	-3.6338687813482142	-5.674842161324999	-3.9808383630714284
O	-3.060108491348214	-6.7621474413249985	-4.291397103071429
O	-3.0470215213482144	-4.957457801324999	-6.176482843071429
O	-5.001811701348214	-5.811698691324999	-3.705217123071429
O	-0.46056246034821435	1.327699177675001	-3.5042902830714286
O	0.5213975986517856	3.164969148675001	-2.2843219330714284
O	-1.2821806663482143	-1.840333791324999	-5.416928973071429
O	-0.9234055253482143	0.6394046666750008	-4.6451599530714285
O	0.6902829986517856	3.530208348675001	-4.313745013071428
O	-1.3488595673482144	-0.7023048413249993	-4.566476953071429
O	-1.8729797293482142	-1.2182298813249992	-3.3798671030714287
O	-1.6764417083482144	-0.4165698593249992	-2.2844112430714283
O	-1.0091089987482142	0.8085405806750008	-2.3693484330714285
O	-2.612995681348214	-2.509924861324999	-3.371252063071428
O	0.3956958386517857	2.515544148675001	-3.354136413071428
O	-4.840642221348214	10.044326728675001	-0.48596142207142856
O	-12.824146451348215	-3.840279841324999	5.312892916928571
O	-10.092680351348214	-5.195982151324999	3.0066072969285713
O	-6.695496431348214	-4.476183361324999	4.614074176928571
O	-5.119463641348215	-2.8605524713249992	7.646144446928571
O	-2.8243086913482145	-4.288987261324999	10.285484516928571
O	-0.9576363723482144	-3.293009701324999	13.439629016928572
O	-0.04878855134821425	-7.1536248913249985	8.222598196928573
O	0.9879594386517856	-7.7456547813249985	4.6146506069285715
O	-0.5840049903482143	-10.163345821325	0.16490380692857154
O	-3.6457322613482144	-9.560810621325	2.3695396969285714
O	7.150865988651786	-14.195498821325	0.5509547069285714
O	3.836666088651786	-12.804051221325	-4.837714863071429
O	6.589911428651785	-8.775974411325	-3.6294648230714284
O	9.664123848651785	-9.482880421325	-1.5006720710714285
O	8.943105648651786	-10.265446921325	2.176865726928572
O	5.368731998651786	-8.854766861325	2.089503016928571
O	4.655421288651786	-9.513567041325	5.764102976928571
O	0.7374893986517856	6.132284618675001	7.767517016928571
O	-8.181431721348215	2.8270264686750006	2.0492589069285714
O	-9.215034301348215	4.851339968675001	-1.0124666250714287
O	-8.749028981348214	9.602070028675	-4.259861333071429
O	-5.887050901348214	9.442534658675001	-6.8195481730714285
O	-8.391816931348215	9.119454898675	-9.642995083071428
O	-11.629423451348215	7.2995040686750015	-9.002187293071428
O	-12.660881151348216	5.896154288675001	-5.684120963071429
O	11.448130948651785	5.551661238675001	-8.994871813071429
O	11.158989148651786	1.7468341886750007	-9.408282803071428
O	13.277228548651784	-2.564573851324999	-4.822910923071428
O	5.779192378651786	9.688774878675	0.42521472692857154
O	-0.15152777334821432	12.232225278675001	-0.8465554590714286
O	0.1330925786517856	8.424952908675001	-0.5813117930714286
O	-1.2950901243482145	5.186434798675001	0.6299261169285715
O	-3.6633388213482143	3.386497918675001	-1.5640239330714285
O	-5.835565951348215	0.46658374187500085	-1.8756215720714287
O	-7.363607301348214	-0.8180875813249993	1.2532712769285712
O	-4.487937411348215	0.6678641966750009	3.297104546928571
O	-2.384105551348214	-2.432847281324999	2.578231776928572
O	-1.1073466338482143	-4.270842841324999	5.594378956928571
O	-1.4095751763482143	-1.1713731713249993	7.7891804469285715
O	1.2377868186517857	0.7529583816750008	9.681348816928573
O	3.8069462586517857	-2.130290681324999	6.2924255369285715
O	1.7452641786517855	-0.6978626713249991	3.4019495869285716
O	2.726491578651786	-3.0148367713249993	0.5351158969285714
O	2.6910388386517856	-1.6193801413249993	-3.0185589430714286
O	3.175803118651786	1.3300872526750007	-5.420748223071429
O	2.0584473786517856	2.456097668675001	-8.877500533071428
O	-1.5138949323482143	3.664077958675001	-8.817960403071428
O	-1.9653140593482143	5.975639218675001	-5.9027576130714285
O	-0.5695752643482144	9.447252528675	-5.304695153071429
O	5.672412278651786	6.976012138675001	-7.893661353071429
O	5.9044604186517855	6.886781468675001	-4.113901673071428
O	4.396063718651785	4.158251428675001	-1.9571072730714287
O	6.569161778651786	1.1106932096750008	-1.2448533670714286
O	6.557828598651785	-0.46039659632499913	2.1874423169285713
O	7.821832708651785	-3.673267941324999	3.7799984469285715
