26

O	25.28920348549918	17.671507085265997	30.209892739510686
O	28.953486205663047	13.319735386010144	28.07322291651618
O	27.388263468465365	14.806628863950978	29.176378379284728
O	26.230329987754878	15.682988366020327	29.426994272430694
O	25.83383455820133	16.633953555506807	28.3593175125076
O	26.036844427200702	16.528413618320563	30.573425853816932
O	26.465164912751586	16.197350941039108	27.138359116142325
O	25.680812252699006	17.897821760839236	28.950072337060018
O	27.561776475202798	15.207845903322369	27.038808004550496
O	29.507347147167195	13.277062504161702	29.31244604983708
O	27.860762851225502	14.20071661277486	28.00421904747045
O	30.053109928144842	12.759614194549446	27.51924971013552
O	29.09799994135916	16.547616329898375	28.791601518225352
O	30.587133294088954	15.222301078812627	27.30190563162748
O	28.642500744055056	17.69992009143832	28.2416890341772
O	31.17513230699816	15.110468545349342	29.11967868343285
O	28.303361334071027	19.04420990930408	28.71485024552442
O	27.689873886106216	19.776887792906983	31.120254334914623
O	28.49722679127268	19.124901935451597	30.14860466985191
O	27.46103432207228	17.724215762955623	31.815230318810965
O	28.463191179854167	17.765452901719183	30.750490067461445
O	28.88975108026239	16.634238127394546	30.12147644866465
O	30.17308205003112	15.700622392583883	28.50093491448932
O	26.73199828164683	18.643657880802785	31.013122914111115
O	25.378529494882738	18.89791104792733	30.99390651432562
O	25.49267739665451	20.165148637439835	30.486263593993634
