20

O	26.971284086633986	20.607398590571705	32.513153333005945
O	31.11877263442271	15.080731156509486	28.895669903231408
O	32.10033957781698	15.780066512977742	29.314133540001677
O	29.91736694637786	15.834365156808769	28.779626442317472
O	31.74219491131149	14.016101115247292	28.300882590673943
O	28.662217615242085	15.420219420715997	29.12288487794141
O	26.332483080510233	19.163886168707524	30.35066032275218
O	27.509059074054452	16.192456173475524	28.971674859771937
O	25.97636845952895	20.52493109733811	30.450792005997457
O	27.71320582076701	17.55995439586153	29.139183664215278
O	27.98059636378979	24.577468105692653	32.30312496688183
O	26.60905019302647	18.517612386871264	29.287922368337092
O	26.42574236113412	21.283453891145133	31.58468729639767
O	26.642544452539834	22.71289376540931	31.626854448846803
O	27.79152193522101	23.232951184832658	32.22846269974433
O	27.432353824266045	25.257408038827798	31.259398510500084
O	26.128724516585695	24.883426697520523	30.942899029288167
O	25.64130881826818	23.660599590859967	31.413642785114327
O	28.84736264064769	18.040892526162686	28.54536933353866
O	29.892845053044912	17.15469165677749	28.306386917632338
