79

O	0.42683048602641516	-4.124998705570377	-0.5905491339433951
O	-2.294809863973585	-0.8146279975703772	-5.005807825943395
O	-0.6044819879735848	-1.5494753225703772	-2.978940405943395
O	-0.2663522049735848	-2.5018416655703772	-2.0503810909433953
O	-1.2562671889735848	-3.3450022555703773	-1.719522659943395
O	0.8420273260264153	-3.1693551655703773	-1.4164373009433953
O	-2.426102073973585	-3.1814324755703773	-2.3088547059433955
O	-0.9157681639735848	-3.812388635570377	-0.45653654094339513
O	-2.639133763973585	-2.2574862655703773	-3.2499076859433953
O	-3.594571493973585	-0.6610376087703772	-5.125395025943396
O	-1.6582038449735848	-1.5638513195703772	-3.970708815943395
O	-1.9163870609735847	-0.3251839605703772	-6.289326145943395
O	-0.31380595197358474	-3.9647127555703774	-4.647909155943395
O	-2.073582023973585	-3.5644546055703774	-6.148447995943394
O	-0.9589382528735848	-5.1828344755703775	-4.331910515943395
O	-0.4235018139735848	-2.7248281755703774	-6.898929655943395
O	-0.9745678481735848	-5.748328515570377	-3.091196475943395
O	0.1835328060264152	-6.209312735570378	-1.0357990730433952
O	0.12363139602641526	-5.645942255570377	-2.354006375943395
O	2.1939125260264154	-5.364868115570378	-1.902490037943395
O	1.2773605560264152	-5.210228595570377	-2.957738005943395
O	0.9552298660264151	-4.158140155570377	-3.8921995959433953
O	-0.8721162349735848	-3.4518365455703774	-5.802221975943395
O	1.492849466026415	-5.8473814355703775	-0.7447584029433951
O	1.628449276026415	-4.634071395570377	0.2404718640566048
O	-0.7981313899735848	-5.308229565570377	0.42496286405660477
O	4.595798366026415	5.738163254429622	-7.302090905943395
O	4.246760616026415	8.903721394429624	-9.302118285943395
O	-2.1551263639735847	9.037985134429624	8.449456944056605
O	-0.49762644597358474	6.477710024429623	10.743252564056606
O	2.4037374060264156	4.087752254429622	10.194107864056605
O	2.019073096026415	0.5376812244296229	11.531541764056605
O	9.911713266026416	-1.4061641555703772	10.487253064056604
O	7.035465396026415	0.2020931324296228	8.579179414056606
O	4.781938166026415	-2.412269395570377	6.959053454056605
O	1.3985440260264153	-0.7128675205403772	6.559352114056605
O	-0.5481677409735848	2.487157574429623	6.824121214056605
O	-3.7471418139735846	3.218432014429623	8.634521804056606
O	-6.440469503973585	-0.3434995205703772	8.180154694056606
O	-6.528994743973585	-3.3910656355703774	5.9977376240566045
O	-7.2297987639735855	-6.897489325570377	7.365718424056606
O	-4.261031223973585	-8.228932965570376	5.4154472640566045
O	-1.9704054049735849	-6.0328034355703775	7.505693564056605
O	-9.421851213973584	-10.498280185570376	-0.5550530839433951
O	-13.651108133973585	-7.371276985570377	3.0222440540566047
O	-10.020777243973583	-6.281406505570377	3.4688628240566044
O	-10.653746643973584	-3.9994130955703775	6.438297664056606
O	-0.9809675573735848	8.627412404429624	0.8878454740566046
O	1.7026184560264153	6.442684764429623	2.4721653840566047
O	5.272639856026415	5.294115054429623	2.960944094056605
O	5.269062016026415	2.543870754429623	0.49749542405660474
O	7.634055836026415	1.9193017344296228	-2.377523805943395
O	7.981016766026415	4.909305214429622	-4.837850135943395
O	9.277136466026416	2.9482985144296228	-7.848453505943395
O	7.360596146026414	0.8035928344296229	-10.438108435943395
O	12.815033866026416	-1.952236165570377	-8.106862335943395
O	12.412432466026416	-0.4762354355703772	-4.691409235943395
O	12.865441866026416	2.845094304429623	-2.9849744559433953
O	-1.2576813009735848	10.923336384429623	-4.997184155943396
O	-9.170626913973583	-7.936915305570377	-13.066476635943395
O	-0.39389964497358476	3.961193834429623	-8.189486385943395
O	-0.17880204697358482	3.0958716944296225	-4.564894185943395
O	2.3267365860264153	0.3536214544296229	-3.9531120359433953
O	3.5498508560264153	-2.201785545570377	-1.2923656349433952
O	3.817481536026415	-0.6126347455703771	2.050389804056605
O	0.9331976360264151	1.8183041144296226	1.414065344056605
O	-1.5820040079735849	-0.9058745045703771	2.334953654056605
O	-4.045623263973585	-0.15778857157037718	4.964760024056606
O	-3.6899114339735846	3.610505404429623	4.435488154056605
O	-5.1631807539735854	0.4205327544296228	0.040583914056604886
O	-5.883192133973585	-3.3187537455703775	-0.4233723539433951
O	-4.296190623973585	-5.038782635570377	-3.546281355943395
O	-3.284619763973585	-4.996124505570378	-7.229089875943394
O	-0.8770365949735848	-6.311181745570377	-9.700193465943395
O	2.6566138460264153	-5.152041505570377	-9.195846765943395
O	2.653041306026415	-1.3449819275703772	-8.885979185943395
O	-4.846383843973585	-0.25484823557037717	-11.368186935943395
O	-4.640275893973585	-0.6253289913703772	-7.650633675943395
O	-7.503344823973585	-2.346754935570377	-5.907140745943396
