77

O	-0.40506922346734675	-5.816267456481633	1.5082277515714286
O	0.35754391653265327	-5.076239786481633	0.6182738405714285
O	-0.6666957964673468	-7.189943066481632	0.9993418855714287
O	-1.9864515914673468	-7.048226876481632	0.1972265355714286
O	-3.2415993734673467	-6.630939716481633	0.8476140865714286
O	-2.790029523467347	-6.123186786481632	2.2429201615714285
O	-1.7126840774673469	-5.119974216481632	1.7648818915714286
O	-5.422861973467347	-3.2641078664816328	1.5601499315714284
O	-4.278095763467347	0.42469647351836737	2.3327311115714284
O	0.2513533065326532	-8.190274066481633	0.5558039675714286
O	-5.840560313467346	2.4607031535183674	2.2692724815714285
O	-3.783390313467347	0.02935607351836733	3.6793573315714285
O	0.14685814653265328	-9.575414446481632	1.2082726415714284
O	-6.329328203467346	0.7201286435183674	3.5039312615714286
O	-4.002730603467347	-1.4716149354816326	3.8946469015714285
O	0.17899348653265323	-10.556742366481632	0.034694222571428596
O	-2.8884774034673466	-3.5801170764816326	3.1546357415714286
O	-2.8205653534673467	-2.118740596481633	3.2575711915714285
O	1.553966086532653	-10.589852206481632	-0.6248687494285714
O	-2.524941093467347	-2.7602623764816325	1.1083692895714286
O	-2.815084143467347	-1.5714634534816325	1.8571189415714286
O	2.346370706532653	-9.486700766481633	0.006384885571428606
O	-3.967996493467347	-0.7025938994816325	1.4527786715714286
O	1.671331796532653	-8.164595136481633	0.1611664876714286
O	-5.538485023467347	1.1104960035183673	2.4064334415714286
O	-1.945544944467347	-3.7351460364816327	2.0245563815714287
O	-4.016664883467347	-5.4387164264816334	0.3706619635714286
O	-5.025643713467346	-4.674970846481632	1.1491941515714286
O	-0.22064215346734684	6.495598253518368	8.929322761571429
O	12.349442166532652	1.2069352535183673	-2.3094560084285716
O	14.085517966532652	-6.217683496481632	3.1557522915714284
O	11.931994166532652	-3.3039866264816324	1.9392909215714285
O	8.673250066532653	-4.729680726481632	0.5511155295714286
O	7.076884796532653	-2.122401476481633	-1.7440066684285715
O	7.603865946532652	1.3712422335183674	-3.0836952284285712
O	7.888686756532653	2.6123140435183676	-6.643389708428571
O	4.994098876532654	0.22774033351836742	-9.12581560842857
O	1.9654912265326532	-1.9428724274816327	-8.35190573842857
O	1.365388706532653	-5.279658166481633	-10.11350007842857
O	0.5513416865326533	-6.810235706481633	-6.782312808428571
O	4.166211296532653	-6.150515726481633	-5.695148288428571
O	-4.088289293467347	-6.931934136481633	-14.216384378428572
O	-5.422889423467347	-10.207741016481632	-8.86253145842857
O	-7.362933333467346	-5.610053866481632	-8.30230043842857
O	-8.121836183467346	-3.8350826164816327	-11.577591778428571
O	-2.721986673467347	-2.7349623564816326	-10.40192797842857
O	0.32299770653265325	-1.3373657514816326	-12.202548578428571
O	4.951109746532653	8.644760683518367	0.5169032905714286
O	6.594694926532652	5.414080623518368	1.6161503715714285
O	5.187391196532653	1.2587174435183672	5.096682581571429
O	3.6598190365326535	0.8288188035183675	8.53323301157143
O	0.3639852465326532	2.7967384335183674	12.869052621571429
O	-3.398588213467347	2.1140159035183674	12.40178122157143
O	-0.10381544346734684	-2.3846412464816327	15.679348921571428
O	3.022446206532653	-2.0497594964816326	13.61712672157143
O	-16.265459933467348	0.061543303518367454	-1.1477401784285715
O	-4.370091913467347	9.364561613518367	7.699092301571429
O	-3.8183611634673467	6.526308513518368	5.040220431571429
O	-1.3538721375673468	4.386774523518367	3.2537279315714285
O	-0.5332757694673468	1.1089170235183676	4.637228071571429
O	1.3288339865326533	-2.0687427564816323	4.107388771571428
O	4.739833426532654	-1.7135343704816326	2.6732357015714285
O	3.673389506532653	1.5862657935183675	0.9583510065714287
O	2.240846886532653	-0.3287001814816326	-1.9693874684285713
O	3.5672966565326534	0.4977631935183675	-5.370998898428571
O	4.664667576532652	3.950436753518367	-4.233191288428571
O	-0.6011697134673468	2.8448371835183672	-3.6580920484285713
O	-2.791730403467347	-0.21560397148163257	-4.271171308428571
O	-5.388576033467347	-1.0231829138816326	-1.7769321184285713
O	-7.810194873467347	-0.40998193548163253	1.1633413915714286
O	-9.397683583467346	-1.8234988394816325	4.272747471571429
O	-6.985478023467348	-1.9932266794816327	7.138963111571429
O	-5.102558853467347	1.1392804735183675	7.464463391571429
O	-6.439314233467346	4.509572613518367	8.438254821571428
O	-10.054530693467347	5.232864563518367	2.5102310315714287
O	-7.057895753467347	4.032697753518367	0.5486664925714286
O	-7.558311963467347	3.0122611735183678	-2.9716441184285713
