72

O	6.8221425680754715	-0.35144810469773563	1.807885083470755
O	5.948262998075472	0.6315978623022644	1.918959503470755
O	6.930968968075471	-0.8792362346977356	3.262655523470755
O	8.381155978075471	-1.3498121346977356	3.371826703470755
O	8.68777518807547	-1.8937543346977355	2.010833463470755
O	7.523194178075472	-2.5287229246977354	1.379422483470755
O	6.545667988075472	-1.6166668146977357	0.8723092034707548
O	1.8372112580754718	-1.9179671046977356	-1.468574493529245
O	1.3212623280754718	-3.5346642646977355	-3.2698727465292454
O	1.2023304580754717	-1.0153672346977356	-0.4673469442292451
O	-0.26931550692452827	-1.9730803846977356	-2.828593336529245
O	2.2083971280754717	-1.0360118546977357	0.6897854934707549
O	4.479539518075471	-0.6473712646977356	1.098403293470755
O	3.5686293580754715	-0.9584593046977357	0.09066949647075484
O	4.561549188075472	-2.8561702646977354	0.8620352734707549
O	3.996377188075472	-2.3256645246977357	-0.33542044852924513
O	2.7237825280754717	-2.9344279146977357	-0.8309446455292451
O	1.1221175770754717	-2.2462350146977355	-2.698438446529245
O	5.164880748075472	-1.7717404046977359	1.5836544034707547
O	-6.468836481924528	-6.592793174697736	0.5730931834707548
O	0.17701427607547168	0.5551632153022644	14.525857493470754
O	2.833497808075472	1.0975391083022643	11.796962293470754
O	1.4596964680754718	3.5462612953022647	9.213897453470755
O	-1.6746958219245283	5.576221995302265	8.471817973470754
O	4.315882468075472	9.172798325302264	3.8162903234707546
O	8.906048788075472	6.626883795302264	4.323892943470755
O	14.260837118075472	7.041105835302265	-0.42570455172924515
O	10.48430831807547	7.121065405302264	-3.733822156529245
O	9.809926348075471	10.531755585302264	-5.293665076529245
O	8.06727100807547	13.049428185302263	-2.9904380565292454
O	6.904816458075472	10.358555955302263	-0.4831903254292451
O	-8.49016028192453	3.9547131353022644	0.3354975194707549
O	-8.429971891924529	2.9129244053022645	3.9805122834707545
O	-6.157402661924528	1.5186658853022643	6.665912163470755
O	-2.547663291924528	-2.8088169446977354	6.929025073470755
O	-2.1872128419245285	-6.443834934697735	5.910945493470755
O	-5.382596601924528	-7.941007154697735	4.4321724834707545
O	-3.7978854819245287	-10.890619214697736	2.6137907934707547
O	-1.9670015919245283	-11.031895514697736	-0.7560971285292452
O	0.06603016207547169	-14.007935414697736	0.4153235104707549
O	0.9066348440754717	-14.325408814697736	4.071797453470754
O	-0.17457254292452834	-11.902334914697736	6.713548343470754
O	-11.449827681924528	-0.20358028869773565	-0.5100728883792451
O	3.071708468075472	-1.5041747646977357	-14.975120206529246
O	6.243484388075472	0.09712430630226437	-13.537324306529245
O	-6.483421821924528	-0.2425338596977356	-8.082267426529246
O	-7.240499101924528	-3.3870454146977353	-10.014323126529245
O	-7.780929131924528	-5.570310364697735	-4.357285736529245
O	-5.036002401924528	-3.1972797346977355	-3.1607448865292453
O	-3.495403511924528	-1.3826494546977357	-0.22994465752924514
O	-0.5987896449245282	-3.1255427746977356	1.503554393470755
O	2.0464294480754717	-2.8538941146977352	4.1719081534707545
O	0.7545086140754718	-0.9713551946977357	7.196611573470755
O	-1.6892045819245283	1.1203637003022644	5.070782603470755
O	1.1875046670754716	3.4220549553022646	4.078105873470755
O	0.9106655950754716	6.985625765302265	4.7482214234707545
O	-2.914016901924528	6.707034655302264	4.757195783470754
O	-5.500577581924528	8.322744355302264	2.5262411434707546
O	-1.0321708919245283	8.906446585302264	0.06625517247075485
O	-0.4268380259245283	5.152594645302265	0.20615273847075488
O	3.2095866080754716	4.9415775253022645	-0.9217248085292451
O	4.440710588075472	1.7731334553022644	-2.664257616529245
O	3.7451323780754717	-1.1308225146977358	-4.987795876529245
O	5.110629048075472	-4.588523474697736	-5.777759796529245
O	3.988251508075472	-7.0488720546977355	-3.1512655665292453
O	0.26348470827547166	-6.5591717546977355	-2.5275484765292453
O	-2.777263281924528	-7.255671064697736	-4.715157016529245
O	1.0307649100754717	-4.477498594697735	-10.153604116529245
O	-1.3736765019245283	-1.7700060546977359	-8.940149986529246
O	-0.7540720619245282	0.43624838428226437	-5.916141756529245
O	1.3029742590754716	3.5740850953022645	-6.344891366529245
O	0.33289336487547166	6.7114620053022644	-4.465068726529245
