81

O	2.6535804552619044	-3.681246225727762	9.597921310523809
O	3.2158775552619048	-2.711413045727762	8.69768091052381
O	2.8721340152619046	-2.985677905727762	7.236447660523809
O	2.728941665261904	-4.4527530557277615	7.131291330523809
O	1.6373637752619044	-5.113626545727762	7.868251590523809
O	1.4366963152619043	-4.306696875727762	9.15526467052381
O	2.319735935261904	-2.908220955727762	10.79512013052381
O	3.260795975261904	-1.7097120207277618	10.910679970523809
O	0.9899959252619044	-2.368764585727762	10.751089580523809
O	3.696078955261904	-5.182262435727762	6.464058320523809
O	3.394225795261905	-5.632753555727762	5.16428150052381
O	2.1760740152619045	-5.311805995727761	4.650786620523809
O	3.8165607352619046	-6.748077075727762	3.1235958105238093
O	4.209436055261905	-6.462108605727762	4.444124240523809
O	0.4090631752619043	-6.420367325727762	3.4936119605238094
O	0.3747575492619044	-7.5679123757277615	2.7948512105238095
O	1.6058231952619042	-7.599181705727762	2.1383533395238095
O	2.473716055261904	-6.783792665727763	2.8723339305238094
O	1.6591517252619046	-5.862422625727762	3.467636160523809
O	-0.6705933033380956	-5.445287435727762	3.731008450523809
O	-0.8752769337380957	-8.352628135727763	2.631727330523809
O	-0.8096737957380956	-4.667413425727762	2.4561963605238093
O	-2.1043084447380958	-4.811484205727762	1.9525195765238093
O	-2.3447393247380957	-4.806392465727762	0.5753473295238093
O	0.16732223626190434	-4.957347445727762	1.4903911915238093
O	-0.0017473567380956734	-4.441419465727762	0.2149973035238092
O	-1.3146032087380957	-4.432799335727761	-0.2455586594761907
O	-1.5891769877380955	-3.447563805727762	-1.1840330794761909
O	-0.6591164241380956	-2.578705045727762	-1.6877468994761906
O	0.5399500352619044	-2.506471775727762	-1.0411822794761907
O	0.9744091652619045	-3.681758825727762	-0.42205864947619065
O	1.2019581452619044	-1.228849293627762	-0.6166276094761907
O	0.8243167652619043	-0.33618454072776194	-1.446466009476191
O	2.5897723152619045	-1.398452170727762	-0.6497392194761908
O	4.661311565261904	-7.577692175727762	2.2549183105238093
O	4.338050135261905	-8.764384435727761	1.9769844395238092
O	5.790039125261905	-6.964190635727762	1.7642235425238093
O	-1.9257851947380957	-7.7582682857277625	3.5805799405238092
O	-1.3331713527380957	-7.974983135727761	1.2512695726238092
O	-7.435944894738095	-6.779019665727763	-7.74995457947619
O	-8.094298194738096	-3.717366805727762	-9.835483859476192
O	-10.900585844738096	-5.066087345727762	8.137769450523809
O	-8.610223034738095	-4.429597395727762	11.11578208052381
O	-8.148872084738096	-0.6786914877277619	10.918077900523809
O	-8.728940074738095	-0.6605256037277619	7.117638290523809
O	-11.007751144738096	2.334486444272238	7.48760983052381
O	-13.579730444738095	2.7627795842722382	4.686175770523809
O	-11.776444844738096	0.44269111427223806	2.2388896705238093
O	10.027165255261904	-4.105578615727762	-4.340053869476191
O	11.772258155261905	-7.336648675727762	-3.419381749476191
O	10.602484855261904	-10.533094255727761	-5.028543099476191
O	4.963585255261904	7.462551854272238	8.17749814052381
O	2.1458599152619042	5.470133444272237	9.792061040523809
O	1.6516533752619045	6.598678914272238	13.400347540523809
O	-3.0629351947380954	4.329293014272238	11.548754040523809
O	7.785701225261905	8.751994424272239	-3.096144189476191
O	11.122495155261905	4.343802744272239	-2.1439465794761907
O	11.288822755261904	2.7294813242722378	-5.531986119476191
O	7.951844775261904	4.002524314272238	-6.898557849476191
O	4.650847485261904	2.7491922342722384	-5.497550489476191
O	1.6167667852619043	0.621165634272238	-6.146335909476191
O	1.8151973852619043	-2.996222835727762	-4.8471738494761905
O	-0.012225185738095612	-6.249868335727761	-4.32385925947619
O	-2.482842004738096	-6.954812825727762	-6.9773496294761905
O	-2.954093824738096	-3.179815865727762	-7.67741113947619
O	-5.446465354738096	-2.9885571157277617	-4.807949069476191
O	-8.886735824738095	-1.6709211677277618	-5.675826599476191
O	-7.531823734738095	0.16874385427223815	-8.71405725947619
O	-5.316778564738096	1.5098968342722379	-3.9640331094761905
O	-5.669932764738095	0.22716700427223802	-0.3589289694761908
O	-2.588511694738096	-0.4212928507277619	1.6334199215238092
O	0.9961867752619045	0.2599716242722381	2.6436348105238094
O	4.075917325261905	-1.287465479161762	4.31514687052381
O	5.706123715261905	-3.7253251257277618	1.8090654175238092
O	6.069002015261905	-2.106214104727762	-1.5806049194761909
O	8.133012685261905	0.824874524272238	-2.6422289694761907
O	10.015422755261904	0.967890784272238	0.6647126805238093
O	6.474774615261905	3.909764464272238	3.5937779105238095
O	4.352340635261904	5.668109434272239	0.9402917685238092
O	1.1394660552619045	4.145393514272238	-0.42938807947619084
O	-2.1217942447380955	4.606518474272239	1.4660960125238092
