73

O	-3.7067335079209434	-6.559231442905661	1.9623611720018874
O	-3.4137479279209435	0.5084720180943395	5.247726872001888
O	-4.521267077920943	0.13247375609433953	5.757316962001887
O	-3.1031848539209435	-0.1782943258056605	4.040785082001888
O	-3.216795767920943	1.7323387470943394	5.8301566820018875
O	-1.8756277859209434	-0.6417762789056605	3.6625906720018873
O	-2.6108529289209432	-4.305690192905661	1.0196160060018873
O	-1.6176567629209433	-1.2947113929056606	2.455894612001887
O	-3.2809476679209433	-5.204712602905661	0.1640349040018873
O	-2.6770519759209432	-2.0692361229056604	1.9894402120018873
O	-7.1893538879209435	-8.12147168290566	0.46068348900188727
O	-2.5329117719209435	-3.0398958429056604	0.8960807150018872
O	-3.9375117279209433	-6.350180702905661	0.7295777660018873
O	-5.068817667920943	-7.053390862905661	0.16590950300188728
O	-6.141412267920943	-7.427512872905661	0.9796140000018874
O	-7.439558217920943	-7.8240061229056606	-0.8436037279981127
O	-6.312226387920943	-7.801356472905661	-1.660973457998113
O	-5.049109497920943	-7.698905692905661	-1.0706181079981127
O	-3.9057238479209433	-1.4809932429056607	2.1101231920018875
O	-4.072264937920943	-0.4948162009056605	3.0771893520018874
O	-7.117746077920943	8.05914744709434	0.5167844257018873
O	5.398790232079056	3.7353179770943394	-11.198079257998113
O	-0.8358239079209433	-1.2624441329056606	-15.950343857998114
O	0.37215649207905654	0.46351310009433955	-12.785083657998113
O	0.7121926420790565	-2.0610167029056603	-9.932568557998113
O	3.0931348220790564	-0.5996196499056605	-7.319687677998112
O	5.166253372079057	2.4627470570943397	-6.5637975979981125
O	8.873070262079057	2.8169011170943397	-5.937912287998112
O	10.175001362079056	-0.7676156629056605	-3.5659848479981124
O	8.372633162079056	-3.3970793329056606	-1.481195297998113
O	9.305310162079056	-7.0995803829056605	-1.6776782179981127
O	5.626396832079057	-7.952132732905661	-1.9117676479981127
O	5.516199912079057	-6.098678172905661	-5.257136347998112
O	11.771369662079056	-11.064440802905661	3.560450952001887
O	5.728970032079057	-13.133963302905661	3.057246752001887
O	5.698235982079057	-9.21291968290566	6.197480202001888
O	9.029405362079057	-8.552577032905662	7.918174142001887
O	11.720070162079057	-6.979819342905661	5.691324972001888
O	9.228359662079058	-5.853418592905661	2.981418172001887
O	11.856556762079057	-4.200412492905661	0.7897633840018873
O	2.559575952079057	9.47657695709434	-2.475715737998113
O	1.2198306220790567	7.138766557094339	-5.135544987998112
O	-3.2193225479209433	3.7233988370943396	-5.5120561779981125
O	-6.909734937920943	3.6095979670943397	-4.689404847998112
O	-8.318718127920944	6.914132977094339	-3.3879035579981127
O	-11.448457377920944	5.5646091070943395	-1.6679669479981127
O	-11.751945237920943	3.7483358370943396	1.7615947020018874
O	-14.845757237920944	1.9075387070943395	0.46954644520188726
O	-15.067588437920943	1.0813885670943395	-3.1984585579981126
O	-12.425814337920944	1.8846076870943393	-5.731385737998113
O	-1.9094515309209432	-4.272230202905661	15.190679342001888
O	-6.284337547920943	9.465919947094338	5.443819352001888
O	-4.058317547920943	6.4483510770943395	4.499342462001888
O	-2.166585370110943	4.756604117094339	1.7652813720018874
O	-3.919327147920943	1.9543790370943392	0.06334140700188728
O	-3.6482380979209434	-0.7556532849056605	-2.619842177998113
O	-1.5316695159209432	0.3269643810943395	-5.572615387998113
O	0.5297950020790565	2.6956262970943397	-3.373611487998113
O	2.5976417020790565	-0.28081332090566047	-2.158177267998113
O	6.320949982079057	0.0296534880943395	-2.6853121379981126
O	6.149491402079057	3.8253322370943397	-2.8520051179981127
O	4.279695092079057	1.5515245270943394	1.6910669020018871
O	3.776323232079057	-2.0462124529056607	2.9306698320018874
O	0.40119146207905665	-2.93131808290566	4.503276702001887
O	-2.434598552920943	-2.2171655829056602	6.698179412001887
O	-5.870656137920943	-3.0955686229056605	7.243002812001888
O	-8.110214787920944	-2.1019354429056607	4.564030802001888
O	-7.623900117920943	1.4917066070943394	3.8083593820018873
O	-8.244124537920943	4.569651157094339	5.865747152001887
O	-5.943749557920944	0.8849409980943396	11.489851242001887
O	-3.0804831099209435	3.0800253970943396	10.360797502001887
O	-0.8377765579209433	2.20766280709434	7.457040622001887
O	2.125737022079057	0.0616930390943395	8.122964942001888
