30

O	21.44697358559005	23.311694996020243	31.441953945840808
O	23.312369680224627	19.207845679805235	30.952736406215646
O	22.179534839311735	19.33602413230545	28.23967740432459
O	22.954603617607937	22.929773249492985	31.35629676225595
O	21.357937191211157	19.539726876417195	30.163402443391824
O	21.655173414972992	21.346465016133465	26.19051230759726
O	23.60473711636919	24.058026156048555	30.63175307575658
O	21.070925341914585	21.445687556411613	28.72986016446876
O	20.735761577580256	24.097804144910075	26.810546474989444
O	23.279979970663632	23.319369104845563	32.848141705847816
O	27.194386403488334	18.452688763714796	28.87200674809438
O	21.183704523479747	24.886155709191968	28.728210917612834
O	23.241964279068547	17.987562163256097	30.227931855171814
O	28.635117675411742	16.43747250613257	28.903058210598832
O	24.734726569549093	20.306573881455847	31.02623800318252
O	21.784222984724707	18.085239602621687	30.186935410811785
O	29.387528496277803	18.176554647042966	28.001390724866763
O	22.57011771396771	19.122580843744547	32.16615475660473
O	23.069966144172472	21.619955636364498	31.21520396261978
O	21.470442869929382	20.024295379833756	31.495294559737417
O	21.590066313487156	20.15830004376835	28.92228713394025
O	23.21545180948842	22.011661192982608	27.935732621960394
O	22.765627675897882	21.09947477671751	26.750137220708766
O	21.86503967092975	22.46853501663408	28.231252309875114
O	23.935281976342953	20.81377678677799	28.32860252438532
O	25.060081843313323	19.791842924546863	28.171106863788964
O	25.84486743252952	18.726981445972196	28.655971739624086
O	28.106454782229484	17.63425154655982	28.447267359749844
O	21.375403615548553	23.77452132963002	27.885596231388405
O	23.58971987338808	20.46932076108445	30.59449785987773
