24

O	23.073753174425796	18.407472304882255	28.714569428072096
O	22.68349266318227	18.065792683053978	27.11591689874642
O	22.199782642336775	19.83436959393577	28.778713280358524
O	29.68670521765742	15.62781722928328	28.229448558515884
O	29.804130950129387	14.682635087362588	27.398638247921728
O	28.494388526399042	16.418684145549435	28.418214907161563
O	31.00994638138403	16.101999131030112	28.527180062181994
O	27.227298564419854	16.092455015904232	28.16587097297923
O	24.22715760716383	18.398600543035784	31.038160910472737
O	23.260299781236693	20.295310477703502	31.19429785363859
O	26.045419217736207	16.717989304898737	28.693904848165293
O	25.30692140681455	20.378212315902324	32.221435055333465
O	25.87423127444091	17.917026852445943	29.284161348810102
O	27.186207811798965	18.27789714796213	29.590273716481086
O	28.367399786112436	17.6493509781875	29.05834246377665
O	24.506376632099027	18.315716084910026	29.632648296713334
O	24.277067990227728	19.676768179338097	31.634165974195287
O	25.805748229419667	21.575145062738358	31.589112669400965
O	24.557060491259513	22.208830370976408	31.132234801935827
O	24.149661905585525	22.561632524266553	29.897742654291026
O	22.89408071415567	23.150533213246046	29.78694590944892
O	22.07326287688223	23.254022948047258	30.876965419195443
O	22.662818568711405	23.247292393358084	32.111094067496246
O	23.889338710260407	22.653455801333642	32.239877750625915
