83

O	2.555850848309091	-1.7917062091963623	-4.994685922594546
O	2.369887098309091	-1.2504457091963623	-6.300714312594547
O	3.085146908309091	-3.1650984591963622	-5.301949342594546
O	2.895773858309091	-3.4177200491963617	-6.770637762594546
O	3.1659155883090913	-2.029187059196362	-7.256929302594546
O	1.542356348309091	0.2598396138036377	-8.035746432594546
O	3.7022065683090912	-1.0186135391963622	-4.4139304425945465
O	1.9362799583090908	0.04352877280363765	-6.571615492594546
O	2.052059748309091	4.235831480803638	0.007457387405453986
O	4.624381178309091	-0.5665799791963624	-5.122152142594546
O	3.598018768309091	-0.8044750291963623	-3.005505460594546
O	4.74877707830909	-0.09752525819636226	-2.444957417594546
O	4.120960718309091	1.1539915718036378	-1.913601148594546
O	3.523163438309091	1.0111132048036378	-0.6925926725945462
O	3.064848198309091	2.1382438708036378	-0.076438062594546
O	2.551985068309091	3.1625798108036376	-0.7717420325945461
O	2.8386482183090913	3.0816528108036376	-2.096323692594546
O	3.312633598309091	1.9083646908036378	-2.7149493905945463
O	1.558720728309091	0.9329967048036377	-5.802224572594547
O	0.09868478730909097	0.4225443458036377	-7.930933582594546
O	-0.725536194690909	-0.4499503591963623	-7.075626772594546
O	-2.142998041690909	-0.19375188919636233	-7.448425352594546
O	-2.6916784516909087	-1.1045504991963624	-8.467885462594547
O	1.585797608309091	4.330875590803638	1.166761767405454
O	-1.4422830116909091	-1.5662796091963622	-9.231743472594546
O	2.228203858309091	5.5335693808036375	-0.3933126825945461
O	-0.849098842690909	-2.5765050291963627	-8.302097962594546
O	-0.19919055909090905	-1.8205672791963623	-7.2140625425945455
O	11.947683538309091	-5.906991899196362	1.4628006674054537
O	8.57278122830909	-5.843655049196362	3.252275347405454
O	7.013786338309091	-5.759830279196362	6.660014387405454
O	4.62146145830909	-8.144643469196362	8.356780887405453
O	2.7577873583090913	-8.638977849196362	11.628823887405453
O	1.720510488309091	-9.545954139196363	5.2486897574054545
O	0.710541346309091	-8.315775949196363	1.7943629674054535
O	2.2042680483090913	-8.518741269196362	-3.243726262594546
O	5.287079408309091	-9.110892879196362	-1.086972202594546
O	-5.813480431690909	-11.782758939196363	-4.635487002594546
O	-5.667356791690909	-9.863700039196361	-7.9214990325945465
O	-2.324786351690909	-8.308477109196362	-8.823189652594547
O	-3.991057881690909	-5.880997099196362	-11.230691992594547
O	-6.777048051690909	-4.4571061291963625	-9.095324362594546
O	-4.900795031690909	-5.154666119196362	-5.8138803725945465
O	-7.9948154716909094	-6.489958229196362	-4.246993412594547
O	-7.35397065169091	-8.923474929196361	-1.369626318594546
O	-3.686547121690909	-7.853606309196362	-0.8740679125945461
O	-3.074716111690909	-10.193663339196362	2.0589069174054537
O	8.701747888309091	11.836049860803637	-0.20860568259454615
O	11.213291038309091	12.707996060803637	-2.912694353594546
O	14.38403563830909	10.692876770803638	-3.160525026594546
O	-12.69510636169091	6.972230760803638	-3.547289302594546
O	-8.641219411690908	10.346827870803638	-4.061718682594546
O	-8.48794589169091	7.156609260803638	-6.2066465025945465
O	-11.524960361690908	7.052688280803638	-8.522120002594546
O	-9.84864132169091	1.8571554208036376	-7.610298612594546
O	-11.03256606169091	1.3900536648036377	-4.0599235625945465
O	-3.141254091690909	9.303279890803639	6.423260437405453
O	2.998578808309091	11.830282260803639	6.422853207405453
O	2.5042636283090913	8.364720610803637	4.911217517405454
O	3.801035818309091	4.865100120803638	4.592718377405454
O	6.060842808309091	4.201347860803637	1.6579799974054539
O	7.98328319830909	1.5842464488036376	-0.21443686259454608
O	9.475703668309091	-1.0648132591963624	2.0067306174054536
O	6.58414711830909	-0.5005518491963623	4.456949297405453
O	4.400473038309091	-2.827170789196362	2.4471695674054534
O	2.976029918309091	-5.829221049196362	4.230316007405454
O	3.406747948309091	-4.1619110391963625	7.634958377405454
O	0.8410850383090909	-3.178005529196362	10.211296587405453
O	-1.835869341690909	-3.9939230191963624	5.932139517405453
O	0.337431069309091	-1.5000425891963622	4.048964597405455
O	-0.681751902690909	-2.1123761191963624	0.44387023740545395
O	-0.374188046690909	0.7901245046036377	-2.009335334594546
O	-0.660749875690909	4.548323770803638	-2.645266144594546
O	0.540473972309091	7.002985760803638	-5.261750392594546
O	4.1384300583090905	7.863753210803638	-4.7078617025945455
O	4.58367580830909	8.535866550803638	-1.005839112594546
O	3.365486418309091	11.390874560803638	1.1543113374054537
O	-2.902706001690909	10.779030160803638	-2.2934148248945463
O	-3.3001906316909086	9.010076970803638	1.0641056374054538
O	-1.987209311690909	5.493839390803638	1.7287756674054537
O	-4.192795711690909	2.606759500803638	0.840750357405454
O	-4.3847978716909095	-0.42332126919636237	3.078733897405454
O	-5.856136001690909	-3.8978919891963617	3.019428567405454
