81

O	3.725433581548	-0.08823918631999994	0.6960137062080001
O	2.945236261548	0.50314762568	-0.3403729767719999
O	2.906831541548	-0.57298560932	-1.3637393137919998
O	2.406398176548	-0.24161850931999995	-2.611360313792
O	1.7300310325480002	1.07108559968	0.2898165732080001
O	2.051528837548	2.22380632068	1.1886562362080002
O	0.7451862975480001	2.93927268068	1.5325684962080002
O	0.9595712395480002	3.62453848068	2.770621876208
O	0.18822544154800003	4.44356618068	3.377706626208
O	-0.9620238184519998	4.04402614068	4.140614046208
O	0.9080404885480001	5.5359285606799995	4.002505766208
O	8.234271991548	-0.01842078031999994	1.376736706208
O	7.116184581548	-0.8617635893199999	1.775007436208
O	8.397240581548001	-3.6359597793200003	0.18865271020800006
O	9.527061311548	-0.5680938193199999	0.773343696208
O	8.603426231548001	0.77400945948	2.317138416208
O	4.351438381548	-0.85160722932	-1.7023540637919998
O	4.689835101548001	-1.8657880693200002	-2.474926743792
O	5.687309951548	0.20690361468000007	-2.167208933792
O	7.738040081548	-2.50630789932	0.542667837208
O	6.268453211548	-2.3991457993200003	0.2668413612080001
O	5.8711714015480005	-1.21694671932	1.0437824962080002
O	7.599518511548	-2.27026857932	2.071498186208
O	5.940128371548001	-2.0130710293200003	-2.932838343792
O	6.802080291548	-0.9747681493199999	-2.710575183792
O	8.170033841548	-1.2126635493200002	-2.5576750137919997
O	8.749605581548	-2.3660083693200002	-3.0881423437919997
O	7.886209641548	-3.45791718932	-3.1328198037919996
O	6.548899381548001	-3.22363334932	-3.300642193792
O	5.098989021548	-0.17937563932	0.41159831320800006
O	5.6203211415480006	1.04148542368	0.9824173362080002
O	-3.465651888452	10.735727480680001	-3.133020483792
O	3.409145381548	-1.02982574932	-13.347793913792
O	4.6315652315480005	-1.9968547593200001	-9.809456083792
O	1.646785725548	-3.14997245932	-7.7306790737919995
O	-2.1425469084519997	-3.63382538932	-8.137756093792
O	-4.2638457884520005	-6.72405049932	-7.712177733792
O	-2.5045582384519998	-9.10058376932	-4.342280343792
O	-0.09586952845199992	-8.33167051932	-1.508956673792
O	2.698405031548	-10.752426029319999	-0.5281929497919999
O	5.110038301548	-7.833648989319999	-0.4270166961919999
O	4.586074351548	-7.37001673932	-4.151356833792
O	3.4541394615480003	-13.93999282932	5.685065696208
O	8.065145241548	-9.36180882932	5.904445626208
O	3.8082213215480003	-7.33519830932	7.598699236208
O	1.2872620315480001	-9.84787722932	9.022519356208
O	-0.6175165284519997	-11.90335192932	6.397042656208
O	0.34446199154800006	-9.51604082932	3.485388976208
O	-1.597885718452	-11.48582642932	0.8663267562080001
O	-9.831504508452001	2.01016626068	-3.134320363792
O	0.19823262154800014	4.55039670068	-7.453236943792
O	1.815935203548	7.86758415068	-6.539712403792
O	1.256015380548	13.20288047068	-4.376694643792
O	1.839290616548	13.353920870680001	-0.582978241792
O	7.187162081547999	14.212579170680002	-4.162026913792
O	6.0720130915479995	11.88280467068	-6.870034473792
O	0.3583107815480002	2.57906972068	14.883149386208
O	-1.663896788452	-3.70533567932	14.054218686208
O	-6.520730248452001	11.283274870680001	1.042923016208
O	-4.815426388452	7.84700918068	1.0538700862080002
O	-3.4235774184519996	5.04940468068	-1.034258789792
O	0.30818218154800014	5.19823088068	-1.786214243792
O	3.303348251548	3.34745482068	-3.149536453792
O	2.327638595548	1.57556599768	-6.374528913792
O	-1.2648498284519998	1.04646939168	-5.128273133792
O	-0.11591154845199991	-1.88508813932	-3.0155385337919998
O	-1.7416747984519998	-5.1826166993200005	-3.687236073792
O	-4.857804668451999	-3.46149252932	-5.084051153792
O	-5.632099728451999	-5.27080603932	0.07910688020800011
O	-3.5238717084519995	-2.13505708932	0.0015028442080000648
O	-0.5642995784519997	-3.09717159932	2.288359916208
O	1.3779158981480002	-0.40401084932	4.123128586208
O	1.284937690548	2.85171853068	6.1322955662080005
O	3.6605402615480003	5.67961695068	6.926510536208
O	4.522970041548	7.8144256706799995	3.9777275562080003
O	1.322925334548	8.71614488068	2.150669236208
O	-1.597611248452	10.92492277068	3.0755627762080002
O	-4.007387008452	6.28178602068	7.813362446208
O	-3.530631908452	3.45420452068	5.339175976208
O	-3.2364536184520003	-0.08781358131999994	6.612502396208
O	-4.861056508452	-2.92299516932	4.693773966208
