76

O	1.5816184464740002	2.5539131151399994	3.215776762679999
O	-1.564700871526	-2.2106261848600006	5.296661842679999
O	-0.009959215525999987	-0.5111105148600004	4.540255022679999
O	0.7181026364740001	0.43335368013999975	3.6744966426799994
O	-0.06340899052600002	1.2102000381399998	2.6809039726799995
O	1.6240694964740001	1.4607016631399996	4.110691622679999
O	-1.341850186526	0.5588592131399996	2.5350187326799993
O	0.30682602647400004	2.5580296951399997	2.8075972126799993
O	-1.8956731035260002	-0.47041260486000036	3.4435710226799996
O	-0.873737779826	-2.0692578948600007	6.457197022679999
O	-1.132495610526	-1.3160094748600002	4.302783912679999
O	-2.552857313526	-2.89082118486	5.921702642679999
O	-1.5622755005259998	1.0844038771399998	5.611206642679999
O	-3.410396073526	-0.5163112648600003	6.075247452679999
O	-1.9231279035259998	2.14631144514	4.849744182679999
O	-2.261335183526	-0.3498415948600002	7.596593942679999
O	-1.554025414526	3.5605805751399995	4.751670912679999
O	0.6248218264740001	4.6966178551399995	5.564810852679999
O	-0.519726194526	3.86761446514	5.718987862679999
O	1.6309925564740002	2.7939588551399996	5.905883892679999
O	0.19393994647400004	2.62663176514	6.121689622679999
O	-0.383469484526	1.3940290371399997	6.189122632679999
O	-2.279929723526	0.16517875713999974	6.384307502679999
O	1.2582519764740003	3.59441444514	4.792071092679999
O	1.975409716474	3.8880959651399998	3.653507242679999
O	1.3062739064740003	5.05081480514	3.3760827426799995
O	-11.142292943526	-0.9932749048600003	3.857271902679999
O	-2.341246853526	-1.0567332348600005	-11.48961662732
O	0.791614076474	1.1586247321399998	-11.571886327320001
O	-0.24167254952600004	4.312814985139999	-13.396897627320001
O	-3.612108243526	8.08097378514	-12.30299112732
O	-3.4879753335259998	4.88116585514	-10.26615082732
O	-0.836626595626	5.15111550514	-7.527238587320001
O	0.146536646474	1.6483487101399996	-6.371516477320001
O	-0.658075935526	-1.97117087486	-7.067085897320002
O	1.546582566474	-4.827999294860001	-8.174858207320002
O	5.511669256474	-4.32446840486	-6.138707867320001
O	6.697408516474	-2.38080970486	-3.0921587873200007
O	10.046858256474	-0.5701816548600003	-3.1652073773200007
O	8.317011146474	2.42238057514	-1.693297017320001
O	6.213185426474	2.71889432514	-4.891109337320001
O	15.585395856474001	-1.7904064948600003	0.9882054346799991
O	13.206568156474	3.67344538514	3.452520462679999
O	10.744051056474	-0.10751326486000035	5.713540992679999
O	12.683390356474	-3.3606740848600003	5.723953382679999
O	12.835665656474	-5.207854424860001	2.361186922679999
O	9.861153156474	-3.2056864148600006	0.8921287296799991
O	9.901878456474	-5.069186104860001	-2.4290012173200006
O	-6.741932763526	-6.67263643486	-3.2776133673200007
O	-6.393547943526	-3.2091083948600003	-4.7519783473200015
O	-6.817059213526	1.9742780551399997	-2.7050548073200007
O	-8.950400743526	4.02380825514	-0.34918570732000087
O	-11.902978443525999	2.1149525051399998	1.117379174679999
O	-12.608096543525999	4.27188319514	4.138640022679999
O	-11.649186443526	10.11143641514	5.145569542679999
O	-11.362058043526	9.04970789514	1.5315503096799992
O	3.9940057364740005	-2.3010882548600007	16.22391127268
O	-7.163474303526	-3.5231951748600006	6.151991182679999
O	-5.235850793526	-2.2800904648600007	3.277409762679999
O	-4.730309733526	1.2735342511399996	2.7713381026799992
O	-3.185927713526	3.8560236451399996	0.7270760676799991
O	-3.255384833526	3.14995524514	-3.0487558973200013
O	-3.214242293526	-0.6005483648600003	-2.318269477320001
O	0.5983700164739999	-0.4669767848600004	-1.8030238173200008
O	2.647019486474	-2.7935319548600006	-3.8292178973200013
O	-0.338879602526	-5.01134745486	-4.372612747320001
O	0.9135663164740001	-4.38532485486	0.7977042556799991
O	3.502523326474	-2.3051399448600005	2.5654725226799995
O	2.616131616474	-0.7410747948600003	5.7528423226799985
O	0.548556176474	-0.09392469486000032	8.518313342679999
O	-0.891073463126	2.36836858514	10.677372242679999
O	-3.527023393526	4.24003361514	9.08661019268
O	-5.830100723526	1.8701397401399997	7.706425472679999
O	-3.093404103526	-4.405828924860001	11.372555072679999
O	-1.627259838526	-3.9332910548600006	7.942010712679999
O	1.929048126474	-4.762818844860001	7.540455972679999
