74

O	2.178967828730159	-1.8256425126396827	-0.1674168951746034
O	2.2354256187301584	-3.1769877926396832	-0.16678109417460335
O	2.3541408187301585	-3.701084492639683	1.0645726428253965
O	1.5288091987301584	-3.024946402639683	1.9572580558253965
O	1.6174682287301585	-1.6928149226396827	1.9225918258253967
O	1.3473954687301588	-1.1976852426396827	0.7199832058253965
O	1.0812796987301585	-0.8971124446396829	2.9471102558253968
O	0.4697207287301587	0.1880606393603171	2.8907175358253965
O	1.1872832787301588	-1.4055282126396829	4.193625135825397
O	3.316553698730159	-3.793478152639683	-0.9053218541746035
O	1.7032182187301586	-1.2765577826396828	-1.2564974541746035
O	-8.053198431269841	-1.9617904126396828	2.598995405825397
O	-10.913943951269841	0.3254500703603171	3.5845601758253967
O	-2.7160942012698412	-10.757063872639682	-10.967487304174602
O	0.4895394987301588	-9.887852852639682	-9.079384954174603
O	1.0041540187301585	-6.104849082639682	-9.291873974174603
O	-0.5559302922698413	-2.951603492639683	-10.626107604174603
O	7.385862758730158	-0.7091150266396828	-9.124005444174603
O	10.066277348730159	-4.764587072639682	-6.917444904174603
O	13.769741948730159	0.12471122016031712	-1.4507449941746033
O	14.12237184873016	4.122120867360318	-6.503418524174603
O	11.28125084873016	1.5299303173603171	-6.558613634174603
O	-4.977850481269841	5.007276267360317	-4.9666827241746025
O	-6.3289328112698415	1.9267098773603173	-6.728217914174603
O	-5.684207131269841	-1.7709575326396827	-7.218238784174603
O	-6.684696111269841	-5.409844102639682	-6.938715334174603
O	-4.617050621269841	-6.107771842639683	-3.8203760641746034
O	-5.680420601269842	-7.593201742639683	-0.5128576321746035
O	-8.719756771269841	-5.848885392639683	1.0425929398253966
O	-8.21827297126984	-7.030451652639683	4.626490845825397
O	-5.814963231269841	-5.748209302639682	7.322919565825397
O	-5.682937341269842	-9.176740762639682	8.929503915825396
O	-6.059748121269841	-12.222088372639682	6.765553625825397
O	-6.623175961269841	-12.133245272639682	3.0697722058253967
O	-9.15305055126984	4.7667623173603175	-1.9256414741746033
O	-8.95060066126984	8.548066667360317	-1.4407418541746033
O	6.484006208730158	9.844503757360318	7.416017225825397
O	8.48143262873016	9.463455547360317	12.476020995825397
O	6.526698628730158	6.432991657360318	11.286548595825398
O	9.57062824873016	4.780469437360318	9.661974855825397
O	9.579745248730159	8.120953707360318	-0.9809270141746034
O	3.8744375687301584	8.393034537360318	2.9144446158253965
O	0.1450532677301587	8.569711577360318	2.2654247058253967
O	-2.8875085012698416	7.344753377360317	4.145139935825397
O	-4.446591141269841	7.302459727360318	7.585256185825397
O	-8.000796761269841	0.8663899303603171	8.473622765825397
O	-7.391881891269842	2.565281297360317	5.098927285825397
O	-4.300116071269841	1.6901054773603172	3.0121756358253964
O	-2.9428265012698414	-0.013049859139682884	-0.020521583174603397
O	-1.7201459792698413	-3.540647872639683	0.4815108538253966
O	0.02744492273015875	-6.4344240926396825	-1.0934751441746033
O	-1.0433030782698414	-6.918915922639682	-4.754392654174603
O	-1.6051888252698414	-3.149178672639683	-5.129877694174603
O	2.1833851887301585	-2.700028362639683	-5.535051294174603
O	3.2333200187301587	-0.903520982639683	-8.737215774174603
O	-0.1523259072698413	0.7835512803603171	-9.050650554174602
O	-1.0499793022698414	4.466138187360317	-9.098569434174603
O	-1.2824390622698414	7.275506567360318	-6.627485134174603
O	3.681471428730158	4.216855347360317	-7.070544184174603
O	2.517329258730159	1.7312356573603171	-4.456584054174603
O	5.844192958730159	0.5491545293603171	-2.9368183241746033
O	5.837899788730159	-0.693614431639683	0.6673541538253966
O	4.614439958730158	-0.3331228246396829	4.1926076358253965
O	4.404929838730158	-2.385509782639683	7.312367035825397
O	1.6725455987301587	-4.880938962639682	6.993777005825397
O	-1.4717368962698414	-3.197465872639683	5.745359585825397
O	-3.7732497212698415	-0.6212936966396829	7.299095185825397
O	-2.0300092912698413	-0.7346471646396829	10.689049695825396
O	2.176525348730159	2.605831297360317	9.701535235825396
O	1.019243338730159	4.466809447360317	6.575377685825397
O	1.7191396087301585	3.361346907360317	3.0581521658253967
O	5.0053646687301585	4.275124057360317	1.4857388158253966
O	5.082358288730159	5.268172027360317	-2.1466299241746034
O	7.732138888730158	5.9597533473603175	-4.768570654174603
