79

O	-2.153968247392157	0.9215679078627449	7.008766591294118
O	-0.4035990143921568	3.3475426808627446	6.074846831294118
O	-0.11839084539215672	2.524211931862745	7.332418761294118
O	-1.3032269693921568	1.795274348662745	7.842630611294118
O	-1.4297228553921568	0.5524686708627449	5.775167211294118
O	-1.5541524253921568	1.627168738862745	4.677032561294118
O	-1.484428130392157	2.9517075408627447	5.202968091294118
O	-1.5845559273921568	3.7888091008627454	4.160854731294118
O	0.40947614260784315	4.082128310862745	5.384362331294118
O	0.6859387126078432	4.065224270862745	3.823373531294118
O	1.8117182226078432	3.311260670862745	3.857725621294118
O	2.357683732607843	3.296027140862745	2.606470141294118
O	2.369315312607843	3.8237553008627447	1.4664924632941179
O	1.447284592607843	4.723239020862745	1.738502441294118
O	0.6379531026078432	4.970431140862745	2.893608901294118
O	3.659665992607843	3.6564217008627447	0.874732519294118
O	4.086936102607844	4.222436510862745	-0.14641854770588203
O	4.860056952607843	3.0448070508627447	1.1019376482941179
O	-1.4608093693921567	1.724315257862745	3.4088276812941176
O	-0.6090801242921567	2.4755427128627447	2.3666711712941177
O	-0.7677055353921568	2.966706940862745	1.158564932294118
O	0.30701405560784323	3.054466140862745	0.16648646129411793
O	1.5419148426078433	2.517646209862745	0.15310891629411794
O	1.193256972607843	1.624578759862745	0.970150999294118
O	0.28546017360784326	1.4390900128627448	2.062456241294118
O	2.766315172607843	2.258121672862745	-0.5542416487058821
O	3.326261372607843	2.322054348862745	-1.6176438687058818
O	3.894748932607843	1.481991429862745	-0.231320777705882
O	-9.685971917392157	8.847747640862744	-2.720907088705882
O	-8.418977887392156	5.621194120862745	-4.337699878705882
O	-7.569235307392156	4.075778800862745	-7.665858958705881
O	-8.897824307392158	0.9485626528627449	-9.375500028705881
O	-8.353407237392156	-2.671057689137255	-2.6520914787058825
O	-9.364153517392158	-1.008889979137255	2.3621831312941177
O	-10.814081787392157	1.541391623862745	-0.07282664670588201
O	-8.331418997392158	-8.434261839137255	7.725008541294118
O	-8.070947337392157	-4.769178399137255	8.422967041294118
O	-5.364282547392157	-5.307589159137255	11.074485071294118
O	-2.955175197392157	-7.5552568691372555	9.251081221294118
O	-4.0121106673921565	-6.206976929137255	5.825591351294118
O	-4.194388957392157	-9.688078039137256	4.425255061294118
O	-6.477374857392157	-10.186200939137256	1.362916441294118
O	-6.6371089173921565	-6.452236749137255	0.523932268294118
O	-8.787286517392157	-6.861043759137256	-2.6152754987058824
O	8.049936612607842	11.683436770862745	-0.05236495370588201
O	7.968800712607844	14.549168460862743	2.398363861294118
O	5.0278614326078435	16.922669060862745	2.287785761294118
O	12.006956112607842	-5.221887809137255	4.666029911294118
O	8.846020522607843	-6.003640849137255	6.699270451294118
O	9.544186112607843	-8.754769939137256	9.250991021294118
O	4.079628632607844	-8.694013739137256	8.195774151294117
O	4.2049002426078435	-10.193967439137255	4.710732721294118
O	9.765937712607842	-0.4311235491372549	-5.893633658705882
O	10.093158012607843	6.059230200862745	-6.133943218705882
O	6.910484802607844	4.573470220862745	-4.652222828705882
O	3.204939132607843	4.776769830862745	-4.392231308705882
O	1.623410512607843	6.345704030862745	-1.4833017187058821
O	-1.4863725843921567	7.481094040862745	-0.103916484705882
O	-4.284020567392156	8.029351620862744	-2.597255718705882
O	-2.6361562373921568	5.453267650862745	-4.809085388705882
O	-4.353646137392157	2.650800885862745	-3.0906293987058824
O	-6.526291577392157	0.276731810862745	-5.0021409687058815
O	-4.812234797392157	1.160771232862745	-8.291922468705883
O	-2.842663537392157	-1.0338500291372552	-10.648851628705883
O	-3.092847767392157	-3.7298822491372547	-6.276121158705882
O	-1.5679372633921567	-0.7297402891372549	-4.352721848705881
O	-2.093191037392157	-1.865036159137255	-0.7929682387058821
O	0.5925214026078433	-0.7948390891372552	1.879529471294118
O	4.112970962607844	0.3446968008627449	2.817316691294118
O	6.082413652607843	2.375662394862745	5.467175741294118
O	5.929486362607844	6.1844596408627455	4.704621501294119
O	6.175989152607843	6.752367290862745	1.0341520972941178
O	9.322509222607843	6.396163980862745	-0.9500305987058821
O	10.696972712607844	0.3455595908627449	2.6869451112941176
O	9.229864182607843	-0.5965229991372551	-0.617359418705882
O	5.579405362607844	-0.42268072913725496	-1.4218130087058822
O	3.5661591226078433	-3.540861729137255	-0.654767288705882
O	0.9283966326078433	-4.849706259137255	-3.0717573987058824
O	-1.9138018573921567	-7.392757149137254	-3.042910338705882
