18

O	29.840759319833982	15.410690370081456	28.318229264808462
O	29.937071792467638	14.408694326611844	27.54902741171749
O	24.391107619518294	20.35983424461059	31.370824307003808
O	28.66352364119068	16.264309408534768	28.461992379644936
O	25.361039892701456	19.648303363542198	30.752082445315345
O	23.155321057488585	23.21689180942143	30.681943134537743
O	28.633784422682893	17.659281900851568	28.580475859868884
O	31.20058135447101	15.657559300368414	28.618225284227506
O	21.775703121382815	21.597946003632735	31.40134436163826
O	27.399229239754874	18.319517454860836	28.794843772803034
O	26.438664152989308	17.761928711079086	29.581351852239415
O	25.329887908864386	18.66740774464414	29.93688053790531
O	24.16477918343046	21.500349751583514	32.08318166534313
O	23.02418890970004	22.17752411479986	31.346104280434346
O	23.549494678480013	21.336744209818402	33.481421311911184
O	25.167030879550865	22.594727183216854	32.27200638281162
O	26.282922737287883	16.45748959359913	29.089124979129917
O	27.384274748694477	15.799236118576383	28.48290038545209
