27

O	25.085178380299592	18.913059335572488	30.233100934888842
O	29.697298219341825	16.21992400073752	29.45731059181154
O	28.183491303098666	17.797858437290547	30.303937943852777
O	27.106090211462533	18.629360350324877	30.02625088379788
O	26.729964282329757	19.524127616373338	28.971310072894777
O	26.120803827108382	18.40686831516421	30.958919930617487
O	27.52989377121629	19.023368425286307	27.86206128192152
O	25.306466627379223	19.535354355308183	29.057009529008845
O	28.39736332881747	17.82699593819044	28.032936787264685
O	30.870296183025992	15.660958457984337	29.12688989320381
O	28.55801968273969	16.978588853036428	29.142597734758496
O	29.525984527290333	16.0668048929445	30.856800479629648
O	27.795004171272332	13.944332742190698	28.304701684482797
O	30.1444845162436	13.101864658617995	27.808981645685307
O	27.665884689794066	14.72004931548203	27.09028000174149
O	29.268004173178923	13.135012515528448	29.92116778895415
O	26.466012145728946	15.587143266349084	27.154143505842885
O	25.201271533862137	17.28654590798292	28.583252664456438
O	25.847862751428632	16.107983029717037	28.26675119975357
O	25.604138613794664	16.360327794133568	30.41999602619681
O	26.114943182741264	15.443991040641937	29.50804283599583
O	27.182889914874437	14.487545883515459	29.486196707130002
O	29.004333490770495	13.205054183774267	28.549833615051874
O	24.525870043101182	16.969908701045792	29.75686629928055
O	24.063603375803186	18.06257393757417	30.60680089193402
O	24.109082068643307	17.63127507603511	31.890386456407555
O	22.983607624746423	18.861752909003577	30.458910147067495
