82

O	-3.685510898824562	2.7750685717052628	-1.3427216811649112
O	-2.9048567238245617	2.066649230705263	-0.4796212731649112
O	-4.966131428824562	2.975840931705263	-0.5286240971649112
O	-5.983884598824562	1.9043893987052631	-0.7643997441649111
O	-6.599603698824562	2.1511809747052633	-2.088622395164911
O	-5.551937928824562	2.672884931705263	-3.054788837164911
O	-4.241021058824562	2.147842633705263	-2.554451797164911
O	-2.041285744824562	-2.491697538294737	-4.151893847164911
O	-5.459927698824562	4.171205151705263	-1.263712643164911
O	-2.688097156824562	-3.992162118294737	-5.829804257164911
O	-1.402246050824562	-2.510538008294737	-2.827009427164911
O	-6.890313898824561	4.215365691705263	-1.0136116731649112
O	-0.6880023588245621	-4.479422518294737	-4.7679092071649105
O	-2.4896782688245622	-1.926411938294737	-1.9785308871649112
O	-7.059097878824562	4.763265031705263	0.3392619128350889
O	-3.398466888824562	0.1903502517052631	-1.495556904164911
O	-2.673721991824562	-0.546314598294737	-2.4330511071649115
O	-6.468050348824562	6.084324741705263	0.6418328228350889
O	-4.752561268824562	-0.03582572829473696	-3.1927430271649113
O	-3.4753271288245617	-0.4857728982947369	-3.6179632271649114
O	-4.997892838824562	5.872412161705263	0.5318765828350889
O	-3.330000788824562	-1.779743768294737	-4.303925657164911
O	-4.816041678824562	5.357587941705263	-0.8343704741649112
O	-1.9698980462245619	-3.893271968294737	-4.607648377164911
O	-4.460691818824562	0.7803700427052631	-2.0725369731649113
O	6.053100041175438	-0.3519869782947369	-9.801348307164911
O	8.562706321175437	5.721925281705263	7.720212532835088
O	6.5412259911754385	8.196403591705263	5.704224352835089
O	3.1370183111754386	9.237658831705264	7.119655652835089
O	2.048744561175438	15.422980511705262	1.743604382835089
O	3.195287151175438	11.781557111705261	1.8684141428350887
O	0.08513582117543783	9.563544781705264	2.0100317328350887
O	1.1934456111754381	6.164929551705263	3.433708442835089
O	4.0925188711754386	4.185865011705263	4.638930572835089
O	4.638720651175438	2.507255791705263	7.921554842835089
O	2.850810651175438	-0.2951569882947369	12.316845892835088
O	0.7667340211754381	0.7695898857052631	9.295839792835089
O	-2.513563291824562	-0.11324423829473695	7.6165243228350885
O	-5.835021358824562	0.646224767705263	9.35155899283509
O	-7.074249548824562	2.026525481705263	6.244430212835089
O	-4.434351478824562	4.819842991705263	6.285556242835089
O	-10.794204258824562	-4.003421908294737	11.146876192835089
O	-13.395493778824562	-1.4008669882947369	5.861049312835089
O	-10.479997268824564	-5.174679518294737	4.361000442835089
O	-9.925616488824563	-7.847053468294736	7.010106392835089
O	-7.479298908824561	-6.904819748294737	9.80907649283509
O	-5.977412058824561	-3.937064088294737	7.8558060728350885
O	-3.458086408824562	-3.0150491582947367	10.54937029283509
O	8.638030121175438	-4.227717198294737	-0.14673907716491108
O	9.333921721175438	-0.49300518829473705	-0.09050537716491114
O	7.6307157911754375	2.883590521705263	-0.33374711216491115
O	3.993982051175438	5.238650091705264	-3.8521361271649113
O	3.143024581175438	5.488503991705263	-7.550578987164911
O	5.773293591175438	3.884373841705263	-9.802324077164911
O	3.6614427311754385	3.425472181705263	-12.929539707164912
O	1.1036064311754379	0.7066173827052631	-13.81245500716491
O	-0.714485628824562	6.808715381705263	-15.19930100716491
O	1.1278470111754382	8.315212461705263	-12.293431107164912
O	11.033861421175438	-4.375665178294737	-4.719571957164911
O	-9.282755348824562	-12.806861388294738	-5.809840357164911
O	4.358992281175438	-10.362862288294735	-6.256036607164911
O	3.9844926611754383	-4.602642858294737	-7.452866947164911
O	3.3378148711754383	-2.128226608294737	-4.687274607164911
O	0.8898278511754378	0.5836471657052631	-5.5020854371649115
O	-0.952571464824562	3.650587111705263	-4.188659577164911
O	0.989476581175438	5.562773211705263	-1.6013134771649111
O	2.7968383411754383	2.423434941705263	-0.5870464721649111
O	-0.03744963882456198	1.4210114425052631	1.698624852835089
O	0.7179992411754379	0.845896628705263	5.2063226228350885
O	4.367224431175439	0.17593824170526307	4.393366302835089
O	1.6895443111754382	-4.500691098294737	5.469313662835089
O	0.8997957011754381	-3.1057681782947366	2.084685452835089
O	-2.964040498824562	-3.289876008294737	2.059522292835089
O	-4.791387388824562	-3.7394590082947365	-1.2567459027649113
O	-4.923086198824562	-5.020068998294737	-4.776888467164911
O	-6.515458658824562	-4.410312198294737	-8.120160217164912
O	-4.966211568824562	-1.5068410582947371	-9.91554404716491
O	-1.176086287824562	-1.907216658294737	-9.753696557164911
O	-0.894698508824562	-9.614392388294736	-7.259964397164911
O	-0.6333939488245619	-7.340768848294737	-4.2344762471649116
O	-2.528871077824562	-8.249439748294737	-1.105375173164911
O	-0.8893886588245619	-7.733570208294737	2.263439842835089
