31

O	24.957573914261395	19.277364843642246	31.07707968183624
O	25.47611300419917	20.364772064831364	30.76803971558762
O	25.10276818189937	18.189025341406087	30.20026067958608
O	25.82780700470048	18.151250617761	28.982210306516563
O	27.251913741368252	17.81384116300441	28.956991219397278
O	27.773916173555605	16.56555681287023	28.31530667737158
O	29.078891684800837	16.19988047760695	28.738207191878633
O	30.02783759361896	15.4881661056979	28.373737110045848
O	31.334911937530336	15.996905951582239	28.48993532971871
O	30.163136470901144	14.19886957499038	27.864665783430247
O	25.21433809048255	19.471331113093594	33.34573831008275
O	24.27384512953099	18.9914798761622	32.38372204749564
O	22.977023271898474	19.72616020858634	32.33847174917825
O	23.122058513440592	21.13850307484147	33.02816040164004
O	23.402276771531298	20.706698468075963	34.478183189786975
O	24.869399256223755	20.539251273840197	34.242733963494786
O	27.230487304411398	21.12520107226205	33.97175599466873
O	27.8201288890681	21.814275543271194	32.8687068387207
O	29.261056503042905	21.8711114743943	33.20095875580458
O	29.880440374590926	21.161467142970135	34.01803240356349
O	29.927810291486185	22.949731954729828	32.67812571377617
O	26.979986669112414	18.628132983960555	32.039600376676226
O	26.530968510620692	19.003091647527185	33.17150108385318
O	27.529134218088544	19.787275826415595	33.885250404962875
O	27.789033636216722	19.219321243867412	35.21203197498771
O	26.621570554197838	17.5782095529199	36.52874388994163
O	26.49238928062056	18.902910748966505	35.859820015574364
O	26.309287030097003	19.85654889857822	36.999626101217274
O	25.365855597517385	19.192491216430938	37.960666724452366
O	26.16793363672594	18.22896230737146	38.77699153589833
O	27.210721110304966	17.61816035268992	37.90594039960535
