74

O	-2.590376013690909	0.9419170098109091	5.4277909542329095
O	-2.9689616436909088	0.18010109281090914	6.456360204232909
O	-2.0755737596909087	2.333922308810909	5.6203352142329095
O	-3.1475365736909087	3.109956928810909	6.4396980742329095
O	-4.496233903690909	2.443963848810909	6.684394724232909
O	-4.973071003690909	1.367372351810909	5.666908854232909
O	-3.949001963690909	1.055969601280909	4.7449232542329085
O	-2.6240761336909086	-1.4335103411890908	0.7859725586329092
O	-4.228866723690908	-3.274753321189091	0.4645535232329091
O	-1.2903152086909087	-0.8280729211890909	0.7842851481329092
O	-2.7843987236909085	-3.1165871311890907	-1.120974145767091
O	-1.3665236226909088	0.5681463498109092	1.334007237232909
O	-2.023213150690909	1.9537290658109092	3.326125804232909
O	-1.9654591496909086	0.6803563658109091	2.6895306342329093
O	-4.004017943690909	1.546465773810909	2.607942534232909
O	-3.3633556036909087	0.23269566681090914	2.594445734232909
O	-3.629313573690909	-0.5408018011890909	1.3574162182329093
O	-2.919099773690909	-2.744009551189091	0.24039790023290908
O	-3.424467413690909	2.147132488810909	3.726630904232909
O	-5.314310793690909	-0.422758481189091	-8.62564054576709
O	1.1313673063090914	14.047220828810909	-2.331216255767091
O	0.8245741863090914	11.753499428810908	0.6990764582329091
O	3.2502753763090912	8.845536718810909	0.39020340523290914
O	5.861223526309091	7.5301337388109095	-1.967453775767091
O	9.53060422630909	6.855202808810909	-1.430828125767091
O	7.667805636309092	3.622818528810909	5.199361404232909
O	4.1010842663090905	4.8929249688109095	8.921806234232909
O	4.56741927630909	7.881591518810909	6.515694404232909
O	3.1376609263090915	0.8676247508109091	14.839491424232909
O	3.6411389663090916	-2.9402151011890907	11.563053324232909
O	6.985435036309092	-4.753078891189091	11.90769142423291
O	9.979555026309091	-2.795531371189091	10.564712814232909
O	7.856890616309093	-0.3359075811890908	8.50633659423291
O	10.828049926309092	1.535393284810909	7.068985194232909
O	5.317586336309091	-1.417517821189091	-7.897003295767091
O	4.6013205763090905	2.238992348810909	-8.56420486576709
O	2.9425347363090917	5.290408988810909	-7.0977244157670905
O	-2.078198750690909	6.2886014088109095	-4.852679605767091
O	-5.776441053690908	5.513538228810909	-5.293929365767091
O	-6.563946223690909	3.6061104788109093	-8.483204835767092
O	-9.949682763690909	2.189615188810909	-7.480359555767091
O	-10.815712823690909	-0.8467949211890908	-5.297746715767091
O	-14.129921373690909	0.7392959858109092	-4.378372375767091
O	-14.326266473690909	4.497304778810909	-4.120795835767091
O	-11.500614863690908	6.844987858810909	-4.888449465767091
O	-4.012400813690909	-14.59042497118909	3.792365724232909
O	-3.104000393690909	-12.77969417118909	7.047865874232909
O	3.2067685163090913	-11.676386871189091	8.848167104232909
O	0.06015855630909117	-9.237483971189091	-5.916153805767091
O	-4.3848023136909084	-5.519180361189091	-9.040313805767092
O	-2.7107848636909084	-4.033109631189091	-5.891348855767091
O	-1.0843885856909088	-1.0126666811890908	-4.3654923057670905
O	-3.331150163690909	1.207291319810909	-2.3716328157670907
O	-3.479053223690909	4.305049998810909	-0.21656875576709078
O	-1.0766649416909089	7.008268508810909	-1.2834087557670908
O	1.2910542363090913	4.3638032688109085	-2.647837285767091
O	2.6984725363090916	3.717059688810909	0.8369572924229092
O	6.269497986309091	4.171482818810909	1.3354819232329092
O	6.934144476309092	3.646889828810909	-2.397970775767091
O	8.968368926309092	1.0266606282109092	-4.214689895767091
O	8.290158386309091	-0.810342181189091	0.4884067702329091
O	4.507791606309091	-0.4174028011890909	0.12419533023290907
O	3.483726356309091	-1.067661331189091	3.684026044232909
O	0.04185202630909135	-2.599994111189091	4.215924674232909
O	-2.946349473690909	-4.706435931189091	3.167445114232909
O	-6.678619503690909	-5.095996781189091	3.686412874232909
O	-8.65956375369091	-2.680904721189091	1.5983628602329092
O	-7.184289973690909	-2.516925301189091	-1.8627946957670907
O	-7.3003290036909085	-5.079796441189091	-4.652932235767091
O	-5.996252133690909	-10.003165871189092	0.45100493923290913
O	-2.726226073690909	-9.216431471189091	-1.2659101457670907
O	-0.4499152136909088	-6.304052921189091	-0.6016213457670909
O	2.1067685663090914	-6.6219498711890905	2.168529524232909
O	5.496597426309091	-5.005497341189091	1.8167257862329091
