85

O	1.7189693142765223	-2.8787098235217385	8.63126555152174
O	3.0952776642765225	-3.2363136135217387	-4.722782978478262
O	-1.0059885977234777	-6.317296223521739	6.646597721521738
O	2.8110256942765224	-4.029918793521738	6.934097381521739
O	4.686333194276522	-4.770504103521739	-4.602403278478262
O	-2.3873182357234777	-4.280242303521739	2.8091760215217385
O	1.9080700442765224	-5.406576983521738	8.50950714152174
O	-0.2719125047234776	-8.275127883521739	0.8153825075217389
O	2.0113805542765224	-6.370076983521739	6.113273121521739
O	-1.3103077157234777	-9.945139003521739	2.8213705315217386
O	2.0239252042765226	-5.515915013521738	0.8224095645217389
O	-1.2908365757234777	-3.847351993521739	0.7832691435217388
O	1.8682597842765223	-3.9217082035217388	-2.331930788478261
O	0.5373503182765224	-4.5012300735217385	6.043210631521738
O	2.3683031542765223	-7.631809783521739	0.7149950885217389
O	4.018555934276522	-4.531272973521739	-1.9703456084782613
O	-2.019213445723478	-9.042416783521737	2.0327384115217386
O	1.8432817542765223	-3.950099273521739	-0.9297300184782611
O	3.9623947042765226	-4.890913563521739	-0.6399556204782612
O	1.2670922942765224	-6.855597803521738	3.6870478815217385
O	0.4278642152765224	-7.098713043521738	2.6505760215217387
O	-1.9204814857234775	-6.411895293521739	0.10346761012173884
O	-2.414242315723478	-7.838634513521739	-0.18827660147826117
O	0.5584889502765223	-4.589917183521738	3.4892767215217386
O	-0.4028820597234776	-5.735863253521739	7.745580651521738
O	2.9443056242765224	-4.648612773521739	-2.872666768478261
O	2.6945485742765225	-4.847656783521739	-0.21457360047826116
O	1.4323748942765224	-5.521573113521739	4.0618545915217386
O	-0.4533841007234776	-6.136923963521738	2.108958911521739
O	-0.7623732857234776	-6.190762213521738	0.6219746035217388
O	-1.5355046757234776	-8.621382183521739	0.7801253405217389
O	-0.12312136072347762	-4.836922583521739	2.3554724315217386
O	0.2003203582765224	-7.2161591835217385	0.0026804105217388408
O	0.2473246302765224	-4.391841293521739	7.430653981521739
O	3.3523260242765223	-4.383444933521739	-4.236041038478262
O	1.5237390242765223	-5.3787874235217386	5.547910691521738
O	-1.2536394357234777	-3.9162918335217385	2.0544319215217386
O	1.5110551942765225	-6.778685503521738	0.46829214352173887
O	1.6366344842765224	-4.1219308435217386	7.9018424415217385
O	9.777462454276522	3.572294716478261	-1.4220779984782612
O	-7.2300405757234785	9.17150510647826	3.707260681521739
O	-5.835149285723478	6.703558666478261	6.186279921521739
O	-8.002443005723478	3.6574118264782616	7.041548851521739
O	-3.3029031657234778	1.7213298864782614	13.514645611521738
O	-3.003838645723478	2.7283298364782613	9.82616960152174
O	-3.6579347457234777	-0.3263722035217387	7.580528391521739
O	-4.5715371957234785	0.9998657164782614	4.135862281521739
O	-5.034963105723478	4.119200796478261	2.2228597115217386
O	-8.036933335723477	5.489592316478261	0.3851837185217388
O	-10.079924485723478	2.1487369164782613	-1.7091297984782612
O	-9.046707105723478	-1.4206358385217386	-2.5575986984782615
O	-11.385949485723478	-4.387436873521739	-2.070472678478261
O	-8.575729445723477	-6.271111143521739	-0.5277480384782611
O	-8.456678265723477	-3.7570559935217385	2.3748684915217386
O	-7.129153725723478	-9.662420593521738	-7.928402528478262
O	-9.677947415723477	-4.632393113521738	-6.562413358478262
O	0.9106406902765224	8.54960870647826	-1.9632132084782612
O	0.5928558382765224	6.673715046478262	1.316547501521739
O	1.8823934942765224	5.758323966478262	4.743139481521738
O	3.1908885842765224	2.4406281464782618	3.6637193615217387
O	6.674694004276522	1.0473910264782615	4.140635901521739
O	9.474652214276523	3.1651952364782616	2.7559638815217387
O	12.142071514276523	0.4552397764782614	2.4053649715217387
O	13.294736714276523	-4.336643623521739	5.804556151521739
O	10.633058814276524	-2.0430941785217387	7.1520460315217385
O	10.412199514276523	1.6798311664782615	7.9609903715217385
O	7.347927804276522	1.9750438564782615	-5.809606778478261
O	4.359309434276522	1.7931592564782615	-3.5129542984782614
O	4.477785914276522	-0.8593119015217386	-0.7905506744782611
O	2.495333014276522	-2.6477227735217386	2.027496511521739
O	0.3347098222765224	-0.14394177352173854	3.7861225515217387
O	-0.06578099344347763	1.9346978664782615	0.7276148405217389
O	-2.7640910257234776	-0.4606901535217387	-0.5087096684782612
O	-6.088114635723478	1.1748312964782612	-1.2670834084782612
O	-4.496357235723478	4.592807436478261	-1.722910758478261
O	-2.6735472157234774	0.7792830064782614	-4.9574806784782615
O	-3.4321275757234777	-2.8786129035217387	-5.458682998478261
O	-0.5531452747234776	-5.3621841435217386	-5.746495728478261
O	2.9732833442765223	-6.198251923521739	-6.9231131584782615
O	5.848683044276522	-8.51515292352174	-5.927249238478262
O	7.730147044276522	-7.363549783521739	-2.8993120184782613
O	8.451091954276523	-3.6234729635217384	-3.1149819184782612
O	6.547175014276522	-2.671171843521739	-10.984321588478261
O	3.4779311542765226	-1.8312342235217387	-8.922599908478261
O	0.07196556627652238	-2.9391207035217386	-10.172295688478261
