85

O	-3.016895475170213	-0.4263163008723401	2.602812190957447
O	-4.267558192170213	-0.90948110087234	2.452296700957447
O	-4.639300562170213	-2.1631178988723403	2.8252446509574467
O	-3.5849433761702127	-2.9530630088723404	3.275299010957447
O	-2.2583351961702127	-2.4814070188723405	3.3296112709574466
O	-2.184330408170213	-1.10412603987234	3.5142358509574465
O	-0.9065579921702129	-0.5379251728723401	3.525977930957447
O	0.2277980478297872	-1.25931283187234	3.1490396809574466
O	0.07111356782978717	-2.6088935088723404	3.225623710957447
O	-1.1421701721702129	-3.2386892088723402	3.518877280957447
O	1.3081743378297874	-3.3222134188723405	3.1579841809574467
O	1.2424838678297871	-4.57612040887234	3.1194764409574467
O	2.5565268778297874	-2.88935590887234	2.721984980957447
O	-6.121166542170213	-2.27126160887234	3.1336456709574465
O	-6.878455942170213	-3.00358868887234	2.2079620809574467
O	-7.454177432170213	-4.34006017887234	3.1056308309574465
O	-8.483827632170213	-3.6228803188723404	4.379054040957446
O	-8.153932052170212	-5.20185698887234	2.1292833409574468
O	-6.418130902170213	-5.13073993887234	3.7846035809574463
O	-6.218284052170213	-3.38211452887234	0.988910220957447
O	-5.638709292170213	-2.31132282887234	0.36254485595744684
O	-5.103060382170213	-2.52990594887234	-0.9040519630425532
O	-5.548647832170213	-3.6470696788723402	-1.557014589042553
O	-6.7999609521702125	-4.11786159887234	-1.2056837060425531
O	-7.048422632170213	-4.15859595887234	0.16542197495744687
O	-8.584755182170213	-2.1571460588723403	4.313895460957447
O	-9.729186082170212	-1.66881388887234	4.067488580957447
O	-7.779347672170213	-1.3850146688723401	5.1567790509574465
O	-5.024045192170213	-4.15085426887234	-2.732832499042553
O	-5.629742992170213	-3.6646685988723404	-3.864837339042553
O	-6.820968602170213	-2.79942455887234	-3.680271169042553
O	-7.731356072170213	-3.1069521688723403	-4.833939049042553
O	-7.154243912170213	-4.13016882887234	-5.722349129042553
O	-5.813499992170213	-3.85737570887234	-6.249952249042553
O	-4.8728532821702135	-3.6209169188723402	-5.121235189042554
O	-7.295848612170213	-5.4476470988723396	-5.176317909042553
O	-6.176287372170213	-6.3257763088723395	-4.795685029042553
O	-8.522097082170212	-5.78631760887234	-4.899616699042554
O	-4.886760752170213	8.83939249112766	8.303209150957446
O	-2.162646384170213	8.92060428112766	5.6355582509574464
O	1.2875316778297874	10.25690793112766	4.975629480957447
O	2.5800587878297874	12.53769473112766	2.2577978209574465
O	-1.4869390221702128	8.41006447112766	-2.691731459042553
O	-6.327506542170212	6.20424181112766	-2.3733178490425533
O	-5.890783762170213	8.73953353112766	0.4933999539574469
O	-5.885538072170213	6.43555818112766	-11.191862099042554
O	-7.884145652170213	3.1995687611276598	-11.013525199042553
O	-9.200256612170213	2.1966227811276595	-7.5749245990425536
O	-9.597805002170212	-1.45624218887234	-8.565046069042554
O	-6.228550292170213	-2.1872976488723403	-10.125850469042554
O	-4.508228692170213	0.46600718912765987	-7.970477459042553
O	-2.6216082561702128	1.70106137112766	-11.018775099042553
O	-1.431036312170213	5.33990337112766	-10.817976299042554
O	-1.9172085161702128	5.59884449112766	-7.007364139042553
O	-0.6587554821702128	9.17776244112766	-6.755559829042554
O	2.5156095278297874	-7.33957436887234	11.898080800957446
O	-0.30714784217021274	-8.86087646887234	13.945502800957447
O	-2.596455260170213	-6.607185768872339	15.908537100957446
O	4.790303167829787	-12.23493796887234	-5.144731779042553
O	1.6477940778297873	-10.67632366887234	-6.696753799042553
O	0.8690766778297871	-12.48685846887234	-9.970263749042553
O	-1.156405242170213	-7.32201967887234	-10.255402119042554
O	10.002230247829788	-5.2717563988723395	7.922552600957447
O	7.468606847829786	-3.3085902088723405	5.886931130957446
O	5.3037570378297865	-0.23400431687234013	5.693066900957446
O	1.7374597978297874	-0.7156991048723401	6.865084490957447
O	-1.673255792170213	0.8881921111276598	7.253562690957446
O	-1.5264038421702129	4.54036666112766	7.987209860957448
O	1.8649455778297872	4.79530956112766	6.165970310957447
O	-0.08503136217021279	5.03328135112766	2.8720183209574466
O	0.6815312978297872	8.10212631112766	0.8409958109574469
O	4.086102957829787	8.60713954112766	2.5221074609574465
O	3.303634457829787	3.8543473511276596	0.042952647957446854
O	0.3806156778297871	2.2027965711276596	-1.785320919042553
O	-0.3897392621702127	-1.3331531558723402	-1.0226291570425532
O	0.45185195782978704	-4.8916229788723395	-0.08909551404255311
O	-1.103983892170213	-7.855064658872339	1.663114990957447
O	-1.288608502170213	-7.51547836887234	5.385796120957447
O	1.8730649178297867	-6.06718957887234	6.832946330957447
O	5.3131684578297875	-7.53567292887234	7.110510810957447
O	4.244988637829787	-10.34420726887234	0.5368203059574468
O	6.427749607829787	-7.24221616887234	0.1967399019574469
O	5.199421097829787	-3.6880897288723404	0.06981245295744687
O	4.050813567829787	-2.2444677688723402	-3.185785569042553
O	4.734484287829787	1.37120157112766	-4.009515329042553
