12

O	30.468020812548286	14.612158571312305	28.168476511525988
O	29.297590057759734	15.329683766893334	28.20627740045109
O	30.507243675147834	13.555749625049488	27.52792556933695
O	31.639507483269096	15.25267416726574	28.382214145371858
O	27.73070397081334	14.971798129232857	27.74649755742794
O	27.182079195869814	16.53721410169884	28.223319315907304
O	28.19605391265984	17.281704277975347	28.636087355009977
O	29.17677217189416	16.438959956393866	28.936666051912034
O	26.041995034508517	17.15498963574059	28.386250943094346
O	25.824084395261774	18.410586797460148	28.82139130038204
O	26.841871178282474	18.989725800708335	29.471058278012112
O	28.050780797998943	18.564637308882425	29.071875284238974
