74

O	2.0983675945535714	4.551588842099999	3.198330677123214
O	0.2167976175535713	0.982513392099999	4.320155717123214
O	2.566111644553571	3.803400612099999	4.274931327123214
O	3.9040746445535714	2.881850312099999	-1.6954238128767858
O	2.0002928845535712	2.637620732099999	4.761708597123214
O	4.494279434553571	4.2637158821	-0.09035234687678595
O	0.8085512045535713	4.273605012099999	3.073183027123214
O	0.08965656355357121	3.251573272099999	3.719072667123214
O	0.6763716645535712	2.338949364099999	4.591847817123214
O	-0.20596038544642875	0.6486802660999991	2.932617287123214
O	0.6252053045535712	1.621158540099999	2.132769037123214
O	1.9489693545535713	1.371574782099999	2.298495157123214
O	2.8704314345535713	2.101631747099999	1.5323867301232141
O	2.620523384553571	2.7766563820999988	0.40436299512321405
O	3.556787884553571	3.2755641220999987	-0.5422376828767859
O	1.3429389745535714	2.575478052099999	0.08635496512321406
O	0.3988986815535712	1.883120319099999	0.848927082123214
O	2.0459654445535715	6.370018372099999	3.972842227123214
O	-0.19537797444642874	9.717614742099999	-5.830987922876786
O	-13.221530475446428	3.421973992099999	3.095244087123214
O	-10.114153255446428	1.886675114099999	4.695840667123214
O	-8.575478315446428	-0.5459666879000009	2.1374195571232137
O	-8.964466985446428	-1.897781127900001	-1.373894062876786
O	-9.363890215446428	-5.436173207900001	-2.628856202876786
O	-9.77367487544643	-7.420599317900001	-5.842495842876786
O	-6.792808675446429	-8.067777767900001	-0.051962270876785954
O	-3.8919451354464285	-7.445029777900002	2.341066987123214
O	-3.664269115446429	-9.227870557900001	5.724379697123214
O	-2.8163041254464285	-5.900056217900001	7.339755607123214
O	-6.299899775446429	-4.669325837900001	6.371659797123214
O	1.4283844345535712	-13.549517757900002	7.857539547123214
O	2.8171264545535712	-8.1259681979	11.139540297123215
O	5.118314064553571	-7.901966807900001	6.682637167123214
O	5.812245254553571	-11.2372009579	4.994612447123214
O	2.7436258045535715	-12.939526357900002	3.471214227123214
O	0.5817750445535713	-9.761767957900002	3.496589717123214
O	-2.445845515446429	-11.4021891579	1.882114757123214
O	-2.4088945954464287	-0.009091197900001013	-9.709959902876786
O	-6.084063205446429	6.126421832099998	-1.087671612876786
O	-4.433246145446429	9.4630118321	-0.511763422876786
O	-0.8113894074464287	13.637059642099999	-2.203569552876786
O	2.8415487245535713	12.942260642099999	-1.2074641728767859
O	2.6696321545535713	15.6958019421	1.387961207123214
O	-0.6660284744464288	16.4050295421	3.038786227123214
O	-3.8906257454464286	14.5968495421	2.282810097123214
O	14.807669424553572	-1.3522705379000008	1.638147668123214
O	12.394286224553571	-7.548936997900002	1.090623014123214
O	6.942037044553571	2.450257482099999	-9.016621502876784
O	4.061172224553571	8.330401802099999	-8.469714422876788
O	3.0898167245535713	5.676204732099999	-5.880151272876786
O	0.2739671605535713	4.005975662099999	-4.147300342876786
O	-0.41267533744642876	5.346951992099999	-0.5588249528767859
O	-2.6030840654464287	4.937524852099999	2.4523941971232137
O	-5.931657235446429	3.689633032099999	1.806171327123214
O	-4.748645625446429	1.897783774099999	-1.356714102876786
O	-3.6078227554464286	-1.0598952779000008	0.709434411223214
O	-5.1156156754464295	-4.386659387900002	-0.22418170087678602
O	-5.923731165446429	-3.233860917900001	-3.756383922876786
O	-4.715968775446429	-4.567325617900002	-7.096049922876786
O	-1.4423091854464287	-6.482086817900001	-3.619707992876786
O	-0.7189336844464287	-2.9849445979000007	-2.325661932876786
O	1.2095647245535712	-3.718369617900001	0.9140521461232141
O	3.8311117145535714	-1.279435297900001	2.2301762871232143
O	6.301447264553571	1.548601862499999	1.6134845921232142
O	7.926072064553571	4.443736772099999	3.192233977123214
O	5.967234934553571	7.5322724621	2.947337037123214
O	4.2010295145535705	7.913557172099999	-0.25933218187678597
O	5.796659164553571	8.907203552099999	-3.5373547028767858
O	11.31674802455357	4.638493422099999	-1.673995592876786
O	9.06346676455357	2.746754242099999	-4.045947062876786
O	5.893679844553571	0.961835110099999	-3.037569392876786
O	6.235855994553571	-2.6903326679000013	-2.006535672876786
O	3.6331266845535715	-5.272612157900001	-3.044441002876786
O	2.6767380845535715	-8.805347957900002	-2.028114102876786
