20

O	23.100205084734398	19.204579802029386	29.380066499411072
O	23.21327490543561	18.05946393668018	28.63161694742516
O	22.068381008185103	20.19494699187738	29.045792670548813
O	22.322401192888826	21.179303619294693	27.959781458333595
O	23.234014501689416	22.203282088866036	28.526466933402304
O	24.224659815337994	21.444037949318464	29.307090750638984
O	24.393990134068112	20.008629843539726	29.47695683118455
O	28.5870601076589	15.612620394717826	28.720628000260803
O	30.03903112236969	13.647743477766609	28.149325668247215
O	27.588032935160413	15.219901279158144	27.695984090176786
O	31.098034015335802	15.510249636006467	28.668617835242966
O	26.275782463143436	15.747624580124768	28.144371376952762
O	25.06798344158407	17.677052767717562	29.220366321320892
O	26.107871176555733	17.155333045908886	28.332737039399557
O	26.731740378768627	18.933701872490158	29.44767756530661
O	27.162536771599864	17.591461250824718	29.30903964436375
O	28.453850691472926	17.077745786100763	28.90222326369058
O	29.852539465790308	15.053871645459079	28.22593297826485
O	25.411878310758695	19.110196567158784	28.954743930724536
O	22.41896362077961	23.16193093512609	29.01387258601857
