28

O	23.33844399366852	19.99748800791412	29.778183970389186
O	23.028879447953003	18.820717360510507	29.15204424115922
O	22.524142214089157	21.179209445157586	29.638432617100044
O	23.323282444681652	22.112088396998256	30.671572998587276
O	24.65268460419206	22.0919247144569	29.84022099625005
O	25.653378252379053	21.02262189511911	30.429234637752643
O	24.704396757991947	19.867128404951885	30.31832241701058
O	22.973529113944288	22.780293059740544	26.56981390813633
O	29.287956916204593	16.08235614338096	29.51350161317716
O	30.625305425513407	14.002519881409185	29.272492749224003
O	28.085249897038572	15.378249441800909	28.98439734947787
O	31.768478245654112	15.925375214124681	29.205393269093015
O	26.909487195790607	16.31026834008605	28.924549540826394
O	25.645512845286724	17.764155847461637	30.605369075473813
O	26.795034492240298	17.042898417511	30.19198080717875
O	27.106399715688895	19.194635124352878	29.83158547208706
O	27.867951102928508	18.073537023154767	30.22066543736295
O	29.06662794734336	17.54098964504186	29.510173765525142
O	24.547161347343337	23.688898472414177	28.205066356852285
O	30.492340937199835	15.371928730796997	29.01704885846266
O	25.76728877855108	23.83478122903557	27.3481793200767
O	25.664939995414773	18.878267926990233	29.66002726324028
O	25.323581414750254	23.831697926516597	26.04298030667586
O	26.656418149867356	22.83596009065725	27.680224567956287
O	24.384812623334756	22.132665344259358	28.369474829443686
O	23.336141390869255	21.761612176731205	27.482591676299332
O	23.281533099055984	20.632482817325002	26.70487414844086
O	21.131481218833734	22.37337617049254	29.3883901324899
