74

O	0.5144178481920637	-2.7682861477206346	-1.8765675956825394
O	1.6043761381920638	-1.8262129877206346	-1.3892572456825394
O	2.7043931481920636	-1.9484990377206346	-2.1811256956825398
O	3.303617738192064	-2.8806152677206347	-3.1078019356825397
O	2.150012918192064	-3.7973844377206345	-3.2565103456825395
O	0.9073034481920638	-3.1674793777206345	-3.1832949456825395
O	3.7163746681920635	-1.0838123877206345	-1.5185275156825395
O	4.362154138192063	-0.9596488977206346	-2.7262187256825396
O	5.833255398192064	-1.3355883577206347	-2.8745452356825396
O	6.240019998192063	-0.20341788572063452	-1.9339412656825394
O	6.287753088192064	0.7217737162793654	-2.7060534556825395
O	-6.634889101807937	2.3668647822793654	-6.202136725682539
O	-10.366479101807936	2.9673823922793656	-5.84597007568254
O	0.8896985281920636	12.740555062279364	5.53342435431746
O	7.840217738192064	11.257972962279364	-4.90073605568254
O	8.860560548192064	7.7152881222793654	-3.9420075856825396
O	7.187782368192064	6.778610552279366	-0.6289939306825395
O	4.867459198192064	8.163229272279365	1.9848076143174607
O	5.382457418192064	8.688474992279366	5.694987824317461
O	8.569110208192063	1.7109655622793654	5.88907307431746
O	11.836885278192064	-0.8631868777206346	2.5808040443174605
O	11.671989178192064	2.8182447022793653	1.5389622343174605
O	9.294168038192064	-8.277617927720636	5.2452394943174605
O	9.451353958192064	-5.310276587720634	10.94638424431746
O	8.943357768192064	-3.0602316977206345	7.86880335431746
O	9.276917618192062	0.20623320267936546	9.781943464317461
O	-5.148275471807937	5.0332697822793655	4.080189344317461
O	-3.6155532918079363	7.771825682279366	1.9587588743174604
O	-0.8679844658079363	8.443666082279364	-0.5451412286825396
O	0.3602043491920637	9.459448802279365	-3.9682156756825395
O	0.8844606881920637	5.965441242279366	-5.27458672568254
O	-0.4404957270079363	4.320062032279366	-8.423989985682539
O	-4.2287612818079365	4.660032362279366	-8.824474595682538
O	-4.769110301807936	1.8354642822793654	-11.301849555682539
O	-5.043851491807936	-1.9419997377206344	-10.729510755682538
O	-3.7366403918079363	-2.6070722177206345	-14.229372355682539
O	-1.3084138778079364	-0.17607513072063452	-15.77302075568254
O	-0.10529283980793636	2.9631304322793652	-14.12486565568254
O	-9.264539881807938	5.309744362279366	0.9615181743174605
O	-11.456690521807937	4.127506782279366	3.848226694317461
O	-5.199170461807936	-12.349658337720635	6.29921580431746
O	-4.936803821807937	-14.764370137720634	1.7341240843174606
O	-1.1528325218079365	-15.096476337720635	2.2544559943174605
O	1.6044425081920637	-7.479461757720634	9.98638204431746
O	-4.2316088718079365	-7.029730927720634	6.2798325043174605
O	-6.6592875018079365	-4.267998237720634	5.3699445743174605
O	-8.927775691807938	-3.6407556377206345	2.42096892431746
O	-9.825700921807938	-0.7637261647206346	-3.5051417256825395
O	-6.344110511807936	-0.8745337277206346	-2.0961411956825398
O	-3.0245721018079363	0.9154684412793654	-1.5952396456825395
O	-0.30114606980793635	0.45989633927936546	-4.25557751568254
O	3.2233077481920636	1.2610068922793654	-5.327773165682539
O	4.2813152481920635	4.691020152279366	-4.181147415682539
O	1.899162078192064	4.584441772279366	-1.1787986256825393
O	4.445009598192064	2.5966951822793654	0.8225809953174604
O	5.5813323281920635	3.9872327322793653	4.07126992431746
O	2.3732813281920637	6.009767062279366	4.376102704317461
O	-0.31940772380793636	5.875624092279366	6.99568584431746
O	-3.114040081807936	3.624411472279365	8.000633944317462
O	2.3074309281920637	1.4909994022793653	7.5140435343174605
O	1.763219208192064	0.6134372322793655	3.8140400843174604
O	4.1191225081920635	-2.3248184177206346	3.39009925431746
O	3.3374325081920637	-5.009591047720634	0.7976478623174604
O	0.5698477681920636	-7.128072967720634	-1.0225616586825395
O	0.19968993319206363	-8.983177117720635	-4.351209065682539
O	-0.21073236880793633	-6.606793607720634	-7.27548616568254
O	-2.740064101807936	-3.907279467720634	-6.372724785682539
O	-6.448392831807936	-4.1020569577206345	-5.8074065356825395
O	-5.177981541807936	-10.193965937720636	-2.1891598556825396
O	-5.665703231807936	-7.417116817720634	0.37075918431746047
O	-3.0121999318079364	-4.9554234377206345	1.4152797543174607
O	-0.49553866370793637	-5.910062297720634	4.07451538431746
O	0.5840670581920636	-3.3285322077206345	6.606836114317461
O	3.1687630681920638	-3.0433524977206345	9.365697714317461
