26

O	25.732390244114967	18.01011145534649	29.564670054755208
O	29.70285455298177	13.884290470808482	27.643865418113677
O	28.006749821761673	15.114073975018094	29.060092020873824
O	26.755684588177097	15.887821726963317	29.19092415022717
O	26.07264116151577	16.44619278451289	28.04930846424637
O	26.368237749321104	16.894706028307077	30.13242505976534
O	26.75912441466979	16.082397450164947	26.870142888476998
O	25.45754826941754	17.689727223304473	28.324183293841735
O	27.88738322940133	15.169079275148677	26.785070413556653
O	30.235920683108233	13.941415831317398	28.955828959895367
O	28.468802049430778	14.504022136264217	27.83426711613634
O	30.832060930094045	13.41694920289805	27.13672304610541
O	29.326481439663265	17.12235217818561	28.4849451883735
O	31.582161969589844	16.04415503705695	28.77189853721743
O	28.629603471046956	17.941096518501908	27.652449977832863
O	30.893199470387685	16.10427527819369	26.84072287229211
O	28.0521026034372	19.31315084573341	27.766844021691124
O	27.270157675732737	20.457527917984937	30.07194011695354
O	27.43179665219559	19.518590399452695	29.023736958246094
O	27.526107753987535	18.50189044508174	31.19915023607592
O	28.177303706779284	18.622647504116312	29.920345207335572
O	29.215820153859735	17.756884229771583	29.721640158189775
O	30.489819542524327	16.45258525278959	28.090778750989525
O	26.509287241342175	19.457508431503896	30.917769874456752
O	25.253307632874954	19.117092034580462	30.343402696203444
O	24.966743595486694	20.376525318927722	29.919414625058035
