19

O	23.418792242120485	19.509400196429336	29.957137742665594
O	23.160498657494728	19.676332431672172	31.305122341800917
O	22.36885947940945	20.426406318191837	29.324246971282697
O	22.195669835103217	21.655812206131138	30.258738406318695
O	23.479803505821724	22.32403465428558	30.101048292704608
O	24.606708351742963	21.380840170976942	29.692840919222895
O	24.912326021876773	20.109078775678714	30.10687020262528
O	28.708917520580226	15.786635318290674	28.633788296535986
O	31.186220063750735	15.694241992190902	28.93209031720295
O	27.602641807997493	15.320276306611493	27.752266254870396
O	30.305091645035162	13.887236333640347	28.06319690822287
O	26.372063645650375	15.914405129317647	28.366105710105497
O	25.13367070358739	17.99372928074358	29.024746229927054
O	26.242034232438552	17.352213090514525	28.319478132675098
O	26.921117663342464	19.164282578426697	29.294013898802067
O	27.316294623448723	17.810159515212348	29.296385618631273
O	28.580654514777407	17.232391979213645	28.844727836812417
O	29.997163024223944	15.18941802547954	28.40652313784728
O	25.527237146696336	19.322743494916097	28.983056604188164
