26

O	28.275012656597305	12.772363082352562	27.59977051026454
O	23.495471084790125	18.926953604766172	28.969542384442008
O	23.21249736631922	17.792738872401184	28.287802084776
O	23.414179241469164	20.203241383936835	28.253819915891942
O	24.150423695004626	21.317977225535458	28.991156048949158
O	23.887053733017474	20.951992853422183	30.468107240935
O	25.03514947597018	19.94589388363481	30.71748381920687
O	24.84479626864759	19.0198413713508	29.610949295083344
O	28.975164583479277	15.215319631399034	27.974516345050677
O	22.018095817541735	20.582670650397958	28.332069332859263
O	30.55120834373695	13.318817003825144	27.562371303508773
O	27.90397307679004	14.26785251650547	28.340152036208767
O	21.92682077471859	21.92142319117068	27.72735485088559
O	31.227171486263344	15.384772706990075	28.313783875726322
O	26.64980689657783	14.963630179476228	28.40781735656955
O	20.49769386018123	22.186295072840647	27.52150991444995
O	25.410635357185672	17.05774871182094	28.718591690077766
O	26.536870556287834	16.411749221657534	28.1370025135676
O	19.608823586860552	21.91321382178797	28.656713317342252
O	27.023926197634932	18.205689076114776	29.430569024467072
O	27.60247882433974	17.181267113337647	28.676588546470065
O	20.15643422376859	20.852577948919077	29.50548324746383
O	28.787777507730265	16.40867514894977	28.807307110490513
O	21.625778039154838	20.77234129434498	29.752153907603223
O	30.19583572795247	14.433634527266218	28.36831823939583
O	25.80151825929227	18.43865648919165	28.716934714356167
