82

O	-0.7526495970127274	4.827876688608236	3.373421421363637
O	-0.7010710531127273	6.165748108608236	2.896799181363637
O	-1.4414952000127275	4.888157068608236	4.7330624713636364
O	-2.1561247360127274	6.210704958608236	4.756842921363637
O	-1.1774957900127272	7.024871908608236	3.979030531363637
O	-0.06835536301272738	8.237036928608237	1.5173744013636368
O	0.6561549639872727	4.404804528608236	3.6517584513636367
O	4.609253783987272	0.7231220486082359	-0.6027787376363631
O	-0.0005594020127273058	6.733345448608236	1.8200844613636367
O	-1.5388360540127275	8.467537418608236	1.5971249413636368
O	1.2648534739872725	5.069016828608236	4.532159741363636
O	0.8642028839872727	3.005689533608236	3.632334821363637
O	2.109500093987273	2.512418188608236	4.138741441363637
O	2.9014405239872727	2.137202769708236	2.952396851363637
O	2.6447894439872726	0.904175608608236	2.424442461363637
O	3.431923083987273	0.47577823860823587	1.3960006813636368
O	3.891947483987273	1.321561085608236	0.46374931036363687
O	3.8110748039872724	2.618353170608236	0.8611454783636369
O	3.0201519239872727	3.0470775246082358	1.9417146513636367
O	1.1144177539872726	6.273059928608236	1.5357771213636366
O	-2.1108769660127273	7.360535818608236	0.7111591983636368
O	-3.546440386012727	7.296046128608236	1.2579029013636367
O	4.624139223987273	-0.4222319013917639	-1.1114484486363632
O	-4.080178666012728	6.435890968608236	0.1793179673636368
O	5.712517763987273	1.340110008608236	-1.1312196886363632
O	-3.730955136012727	7.202753078608236	-1.0510789986363633
O	-2.4956543360127275	7.928978128608236	-0.6498326956363631
O	1.9312633139872726	-2.159607461391764	13.087261671363638
O	0.39154624398727267	-3.9867500713917643	10.104860871363638
O	0.10642969398727264	-7.378123831391765	8.517053161363638
O	-2.9239387460127273	-9.487485551391764	7.6967228913636365
O	-3.878306286012727	-12.828127151391763	6.171584931363636
O	-6.125119736012728	-6.688697621391764	6.263517791363636
O	-6.168484856012728	-3.0917631113917645	4.996235231363636
O	-6.208604006012727	1.908409382608236	6.693741911363636
O	-4.738354956012728	-0.2936510113917641	9.456206601363638
O	-13.561023036012728	2.5156331166082357	1.9280697313636368
O	-12.420935136012726	6.071775828608236	1.2373199513636368
O	-9.398657766012727	7.294625438608236	3.220122191363637
O	-8.701410516012727	10.032035958608237	0.6848076683636368
O	-8.773685026012727	8.086979528608236	-2.570729568636363
O	-7.8744226860127275	4.739974748608236	-0.9106505586363631
O	-10.392025796012726	2.9286597996082357	-2.849890868636363
O	-11.588361736012727	-0.28239503139176403	-1.1702701086363632
O	-8.604240666012727	-0.49262027139176423	1.2615022213636367
O	-9.755337476012727	-3.747187751391764	2.850967061363637
O	14.507616763987274	2.2621891059082357	0.8052126063636369
O	16.210783763987273	5.119165448608236	2.632263551363637
O	16.25781446398727	5.105105838608235	6.397427791363636
O	-1.7681842460127273	4.417929528608235	-14.148670428636363
O	3.1469366839872728	5.568702758608236	-12.535344828636363
O	0.29640802598727267	7.161704158608236	-10.489883628636363
O	-1.7961339160127272	9.360876698608237	-12.814642928636363
O	-4.9845194860127275	7.658580718608236	-8.616014008636363
O	-5.515688166012728	4.055300798608236	-9.649921928636363
O	6.850276803987272	-4.865030861391764	-8.186844808636362
O	12.302285663987274	-4.358294541391764	-4.445200618636363
O	8.965395393987274	-3.4364241613917637	-2.846068758636363
O	6.759635773987272	-3.662989261391764	0.1745370533636368
O	7.035582703987273	-0.8407860413917643	2.641326691363637
O	5.672993883987273	0.6148866486082358	5.818763231363636
O	4.637479393987272	-1.9698835113917639	8.344661771363638
O	3.8629584039872724	-4.347446031391764	5.444940081363637
O	0.45113183398727263	-2.7705455513917645	5.036023271363637
O	-2.5291684360127276	-5.070307121391764	5.357910831363636
O	-0.42044412001272735	-8.145409751391764	4.563574691363637
O	-0.6438920763127274	-10.583157351391764	1.6980248013636368
O	-3.417395146012727	-6.554148041391764	0.21312563336363682
O	-0.44694374601272735	-4.252622911391764	0.8002534493636368
O	-2.034515356012727	-0.7945746813917642	0.5486568703636369
O	0.14433273798727264	2.164015850855236	-0.5524997786363631
O	2.9624034839872726	3.368632198608236	-2.827584718636363
O	5.279590323987272	6.354578968608236	-2.956449798636363
O	8.096501453987273	5.985498488608236	-0.5121646946363632
O	9.405912163987272	2.454093682608236	-0.7654352406363631
O	11.382207663987273	0.774118588608236	-3.507566888636363
O	6.916581193987272	3.984400698608236	-8.125276788636363
O	5.734673223987272	0.3772129186082358	-7.746517648636363
O	3.671253203987273	-0.835184661391764	-4.784006498636363
O	-0.03929965701272731	-0.48360943139176404	-4.981755548636364
O	-2.296211516012727	-3.2119592913917643	-3.662706048636363
O	-5.974689966012727	-3.7463048313917637	-2.990579518636363
