74

O	-3.4951190320366665	1.4246051910199995	-1.0145333685366666
O	-2.6548541890366666	0.24069908901999965	-0.33670582253666664
O	-3.4808850920366665	0.4276022310199996	0.6729781764633334
O	-4.191653482036666	-0.6718334369800004	0.3606764964633334
O	-4.858423972036666	-0.9608300169800003	-0.7965196475366666
O	-3.879224392036667	-1.0833017069800004	-1.7301140085366666
O	-2.4202781290366664	-0.8283612269800004	-1.2435370985366667
O	-3.839386142036666	-2.0870733069800003	-2.460688578536667
O	-5.773592642036667	-0.4119661609800004	0.9777737014633334
O	-6.046706612036667	0.9371796530199996	1.0594462114633334
O	-4.590208852036667	1.3368472500199995	1.3648180514633335
O	-4.7700590220366665	1.7027613730199995	-0.9052302515366666
O	-2.671653452036667	2.1124762030199995	-0.37017635853666664
O	-3.6763993320366666	0.9856640630199996	-2.1554366585366664
O	3.2257555679633327	2.6056110330199997	-8.215247108536667
O	6.512556007963333	1.8573992330199998	-9.956835978536667
O	-4.023655552036667	15.32252580302	0.48182444746333336
O	-5.631767952036666	12.16006210302	1.9147826214633334
O	-2.9238355720366664	10.22857287302	3.8128835714633333
O	0.7367738879633332	10.278132703019999	4.719043201463334
O	-2.6917570820366663	4.78671252302	10.066340221463333
O	-7.854368512036666	4.04610605302	8.994611331463332
O	-7.308324302036667	-4.05353947698	10.197004621463332
O	-5.282994582036666	-5.12933146698	13.218496721463334
O	-3.4469676620366663	-2.3005425969800006	15.033370421463333
O	-3.7527624720366664	0.16205567501999962	12.082661021463332
O	8.338286057963334	3.6442192530199997	1.1448803114633335
O	7.144239177963334	7.09564101302	0.1275805806633334
O	4.014772657963333	9.127333773019998	-0.5141447205366666
O	-0.7430685410366666	8.26437354302	-3.4597266685366668
O	-2.0087179040366667	6.82687498302	-6.745482488536666
O	0.8733888679633333	6.00997778302	-9.171444868536668
O	-1.0636190180366665	3.6677737930199994	-11.444023078536667
O	-1.9823626000366665	-0.016895176980000315	-11.015971078536667
O	-5.022270932036666	0.45143341381999963	-13.240286278536667
O	-6.798736392036667	3.7696488030199995	-13.246285278536668
O	-5.6894814620366665	6.76643056302	-11.307391778536667
O	9.981136907963332	3.1086491330199997	-3.7157274685366666
O	2.9676955579633333	-12.85162819698	3.4308099714633333
O	0.5057074679633333	-15.390622696980001	4.895229041463333
O	0.48941389796333357	-17.35581139698	1.6035929214633333
O	-0.4991027420366665	-14.15082159698	-0.1897068555366666
O	-3.2736973120366666	-13.290643796980001	2.3001359914633333
O	4.247271327963333	-7.60959077698	3.809005771463333
O	6.6809155079633324	-5.68866900698	1.6408567314633333
O	7.079337127963333	-5.27959155698	-2.0850419485366665
O	7.3662670279633335	-7.27688666698	-5.281048228536667
O	5.836417457963333	-1.8258813569800005	-7.5513143785366665
O	3.6341743679633334	-1.0565734669800002	-4.448617648536667
O	2.033460597963334	1.5202394340199996	-2.2200319485366666
O	-1.2514659260366665	2.5854200030199994	-3.1754027985366666
O	-4.369220272036666	4.71466209302	-2.1076162985366667
O	-3.2982558020366666	7.96279291302	-0.6583073775366666
O	0.11326386796333332	6.61293557302	0.5562614224633334
O	-1.6860654588366666	5.17745837302	3.6159077614633333
O	-0.3182818120366666	6.27122740302	6.970604371463333
O	3.068051227963333	7.00790840302	5.443375471463334
O	6.455538137963334	5.52098873302	6.220685911463333
O	3.013753787963333	2.2363016530199995	8.178118261463332
O	1.1990454379633333	1.9378009930199998	4.765165511463334
O	-1.9022360030366665	0.07319324801999966	5.746514991463334
O	-3.4288010420366666	-2.3318808569800002	3.3082182614633333
O	-3.1515277620366664	-4.67192813698	0.2999132254633334
O	-5.4145910020366665	-5.76368216698	-2.5685493385366667
O	-5.728379962036667	-3.2619188169800006	-5.386179968536666
O	-2.2497130700366665	-1.8381138869800004	-6.028120848536666
O	0.8428315579633334	-3.4335272269800003	-7.683045438536666
O	-0.9362134950366666	-6.68038679698	-8.560555518536667
O	-0.5957133220366666	-9.312525976980002	-3.7518402385366665
O	2.1712705379633332	-7.38299474698	-1.9276791085366667
O	1.5361075879633332	-4.35754149698	0.3129699414633334
O	0.6463980179633333	-4.84973525698	3.8744591214633335
O	2.0740199679633333	-2.6247695469800005	6.588855161463334
O	1.5401059179633332	-2.0144287269800003	10.301465821463333
