19

O	23.081764402874636	19.374306962758418	29.753132505566757
O	22.8030377197752	18.518199801569367	30.758749296812784
O	21.932679092923077	20.272967680072554	29.50795152893508
O	21.84986603896392	21.21555468834243	30.708385439849796
O	22.955090636285075	22.155759461779088	30.45746136245053
O	24.14255439270587	21.402126615353424	30.004817600911608
O	24.471763331040872	20.04867635032546	30.22703297661645
O	28.69165687934476	16.26105750130746	28.174915442282806
O	30.29410104294802	14.407527964614264	27.572312327060786
O	27.482807782924034	15.441706350464493	27.919539426147608
O	31.18345508137459	16.139497426000634	28.589002023937077
O	26.28986491501986	16.14296039202191	28.464286167167955
O	24.971403983953646	18.02801604377393	29.075148681506054
O	26.079150557185567	17.56679712429763	28.256463063185233
O	26.598789288246603	19.209456585768518	29.640010681056157
O	27.23002719747081	18.292490933287837	28.779018503438454
O	28.368039053967692	17.42299229565236	28.99453947861323
O	29.94126517166427	15.5220662574733	28.358175759127732
O	25.229298303873417	19.405641616594394	29.109915038788717
