82

O	1.527979387726316	0.42237629376491215	-5.320283430210527
O	4.2727018377263155	-6.614724330235087	-2.8693726702105264
O	3.798837647726316	-5.604536920235088	-3.869706980210527
O	4.557643127726315	-1.9567485702350877	-4.019605590210527
O	3.963979867726316	-0.7437748612350878	-4.701475280210527
O	2.527525937726316	-0.49813451423508787	-4.727073090210527
O	2.587204237726316	-1.8387656802350878	-5.469489980210526
O	3.039639807726316	-3.138677160235088	-4.935588710210527
O	1.360189847726316	1.4860070197649122	-5.875573860210526
O	4.177023257726316	-3.199411320235088	-4.288819510210526
O	0.22117270272631578	0.4532643907649121	-5.9479607902105265
O	4.575647727726316	-4.437500790235087	-3.9063422502105265
O	2.3137456377263157	-3.020577850235088	-2.057315393210527
O	0.33924287372631573	2.204625219764912	-3.562977130210527
O	2.4658552577263158	-4.362297810235088	-1.9278557222105266
O	1.2446670077263158	-2.810970910235088	-2.775735110210527
O	-0.9607062752736841	1.1989555097649123	-4.0579504702105265
O	0.8573467377263158	-1.4961930202350877	-3.1867644802105266
O	1.3098708377263157	-0.10154724123508788	-3.073241910210527
O	2.320491427726316	-0.5269838142350879	-2.2581465412105266
O	2.8483321377263158	-1.837730170235088	-1.8004524802105266
O	3.5383198077263156	-4.852733030235088	-1.2768686602105266
O	4.948718847726316	-4.6562239902350875	-1.6753686702105266
O	0.3436775137263158	0.9598493197649122	-3.493242490210527
O	5.483720427726316	-5.961830230235088	-2.1827471222105266
O	12.199673777726316	5.608938849764913	1.4726928397894732
O	8.779145237726317	5.701563639764912	3.167398829789474
O	6.339663117726316	8.105106819764913	4.7351461597894735
O	4.847074747726316	8.184802419764912	8.222899289789472
O	2.423672947726316	10.202853259764913	10.334726859789473
O	4.061180627726316	3.932719789764912	9.478799259789472
O	3.8322564877263154	0.6097935887649121	7.580056299789473
O	5.462457737726316	-2.611045100235088	8.880271359789473
O	6.815756047726316	-3.262593540235088	5.373346089789473
O	8.927057347726317	-0.08752187923508786	5.746196829789474
O	2.273594477726316	-8.637202060235088	10.451407159789472
O	2.5785674277263158	-11.109909140235088	7.587652279789473
O	4.895318907726316	-10.159737670235087	4.765835639789474
O	3.1647777077263157	-12.593731840235087	2.3941037797894733
O	-0.5008755982736842	-11.736343340235088	2.922276039789473
O	0.3773862757263157	-8.122725350235088	3.9022907997894736
O	-2.0707456122736843	-8.338955590235088	6.736503399789474
O	-1.4161270522736842	-5.9703834302350876	9.653497359789473
O	0.9203395777263159	-3.678560260235088	7.720065389789474
O	1.4561729277263158	-1.1894334452350879	10.573840159789473
O	1.975674407726316	5.683274969764913	-13.528321440210528
O	4.493295907726316	4.702418329764912	-16.148032140210525
O	8.104771837726316	5.638364969764912	-15.582098240210527
O	-12.725937822273684	-7.257493650235087	-2.8628319402105267
O	-10.664841722273684	-5.491744380235088	-7.451748440210526
O	-8.463013842273684	-7.899296780235088	-5.419353420210527
O	-10.288934322273684	-11.238571940235088	-4.974263810210527
O	-6.568816452273684	-10.643419740235087	-0.8649239782105267
O	-8.467826682273683	-8.089136490235088	1.1959623497894734
O	-9.164076162273684	0.5441084217649121	-1.0519138702105266
O	-8.516299142273684	5.944659859764912	-5.241480360210526
O	-4.441865492273684	8.797828769764912	-9.321658240210526
O	-2.804143892273684	6.465663079764912	-6.756320690210527
O	-0.14776435307368424	6.045806709764912	-4.329977610210527
O	2.7798888077263157	4.439164049764912	-5.284213620210527
O	6.089308997726316	3.521049379764912	-4.263491620210527
O	7.792160147726316	5.833295599764912	-1.7633986052105266
O	4.302915747726316	6.668032639764912	-0.5431428032105267
O	4.222182727726316	3.6875208197649116	1.7028453297894732
O	3.7876202877263156	4.203570519764912	5.4304548597894735
O	2.309823187726316	7.666365079764913	4.865847579789474
O	-1.1049286172736843	9.019490879764913	5.675681299789473
O	-1.5823898122736841	3.9051889097649117	5.985175059789474
O	-0.28333823987368423	3.626100229764912	2.3726770697894732
O	0.12229832672631574	-0.07682972423508788	2.3748351397894734
O	-0.8471879202736843	-1.7780694702350877	-0.8469081682105266
O	-1.885463542273684	-2.044136300235088	-4.807967220210527
O	-1.2771328622736842	-3.427813270235088	-8.405546550210527
O	1.1583175777263157	-1.1454274522350878	-10.360591770210528
O	0.38857325772631574	2.435403789764912	-9.427974030210526
O	-2.494761562273684	4.251607549764913	-10.798297970210527
O	-6.5221411922736845	-1.455577940235088	-9.330892260210527
O	-6.875264862273684	1.074709199764912	-6.587400250210527
O	-4.237094152273684	1.531042919764912	-3.889261900210527
O	-5.026449992273684	-0.4204424398350879	-0.6702716342105267
O	-4.500648282273684	0.9192274197649121	2.8537430397894736
O	-4.002857412273684	-0.4835702382350879	6.356055029789474
