28

O	23.33892108576543	20.060348714957563	30.013730256540192
O	22.943384462376358	18.880056643755704	29.446920658648025
O	22.48180257843822	21.24174142326276	30.035662349220367
O	23.335225925398774	22.16355315329338	31.002102372089062
O	24.62490143304667	22.121086456015856	30.124515763458934
O	25.608671808247664	21.074936485728152	30.733831282726886
O	24.715765974731255	19.857974251789933	30.506553193156744
O	23.405197684999862	20.480187088394253	26.95103634023985
O	29.22453658546548	16.019544584609918	29.091825886698135
O	31.708900935699518	16.032675738584217	29.012483351571092
O	29.27118346656599	17.08271887374888	28.06399519578186
O	30.84669445141433	14.004537920177771	29.072976464392426
O	28.358130202879014	18.25432926562049	28.195365228355346
O	27.10690022841319	19.67123335087443	29.8129031146107
O	28.088049673747534	18.69118029956921	29.593623298284115
O	26.15885648724406	17.851359101027104	30.47136833086872
O	27.518046759836782	17.5267627967984	30.326215155135248
O	28.084120479333386	16.22055883629168	29.976874448870255
O	24.49817085991089	23.591851724588185	28.47718007282774
O	30.494312045888282	15.326100730171708	29.22460587113371
O	25.58228108257175	23.625859777708186	27.40467096099532
O	25.750729766778687	19.036904531779918	29.726627934078415
O	25.12060279393805	24.5093675435987	26.46383950398185
O	26.734564656965755	23.9688088915237	28.076161023602108
O	24.428807846121913	22.00532676459493	28.665654573093924
O	23.497023532968555	21.646866273017054	27.64988951779678
O	23.261405075367247	22.61192114313825	26.636084824561465
O	21.36989182251842	22.578786023423632	29.43389603641931
