32

O	24.246809103499196	18.3949596886237	30.01513638698656
O	21.898194778237748	18.653268808155083	28.2051520153531
O	24.428925784012026	18.842927216973052	28.70933267903652
O	27.729610434387844	22.30453647007081	31.592772906816215
O	23.263204009917562	20.201000222830857	27.009425306611547
O	25.443533397554955	17.963278452828014	28.144947268036738
O	24.21999962554922	20.6258928802026	30.731690366174124
O	26.493943757234653	18.429336949402902	29.116533129485102
O	26.604619126781078	17.87663548288207	33.07532945362773
O	28.451027241161825	19.045703417052763	30.8669172682623
O	25.07491046011404	19.511310142808792	33.23022522976719
O	27.354636915004367	21.269229209164727	31.18231754850505
O	28.584804580436998	20.25013680117115	33.828815825567105
O	24.137672420064273	18.909770167599305	32.33711545139619
O	24.544315563241383	19.418297034602517	30.985118428446647
O	22.79774149789257	19.503541103882487	32.56628825807851
O	23.004559411087023	20.288021467315343	33.83177579321175
O	24.443418553002417	20.70077872148098	33.728645694933604
O	26.389934867243397	19.050597597842216	33.382873152197654
O	27.878714882646783	18.600180027478622	35.166578033846754
O	27.338642497424306	19.71654304773182	34.250561009687154
O	26.847937983441817	19.75165827027691	29.362956681829573
O	24.95400564579446	18.928893178952684	37.36853161935589
O	25.3901171513343	18.158709505448314	38.419164746165066
O	26.43165577859971	17.279096391415706	38.14494753925892
O	27.042043503163967	17.26620424311547	36.89366195022849
O	26.658337846528795	18.173444814003776	35.94349715777521
O	25.860386676396143	19.22273547714169	36.38805891914957
O	27.79127507007099	20.080475207745824	30.34680927059793
O	26.850955683236354	17.5695169942088	30.088591937877222
O	28.22894978596839	17.779703439555007	30.337839392253176
O	23.21173898305818	18.886079175661877	27.731226113049566
