79

O	2.7141331624859655	-5.70757711861228	-1.5794795256052634
O	3.6266354024859653	-5.79952653861228	-3.958340365605263
O	2.8281157424859655	-4.720013868612281	-3.234913215605263
O	1.4906040524859654	-5.22189896861228	-2.994784075605263
O	3.3654273324859654	-4.52916320861228	-1.9970653456052634
O	1.2540504424859653	-6.287872978612281	-4.1020240756052635
O	1.3878331924859653	-5.88724920861228	-1.7687984756052635
O	1.8184548524859654	-6.17837421861228	-5.465626805605264
O	3.2940443424859653	-6.239829678612281	-5.340623415605263
O	1.2253537224859654	-2.8673640086122805	3.4005920643947367
O	0.44477272848596533	-3.7044940386122804	5.6016061343947365
O	1.0254246124859654	-1.7338677786122805	2.496759454394737
O	0.6036341024859653	-1.5894273386122806	5.4879301643947365
O	1.9616038824859654	-2.0858138186122805	1.3414507443947365
O	2.0530496624859653	-3.5624599686122806	-0.6625400676052635
O	1.2517258124859654	-2.9606998586122804	0.41611774739473656
O	1.2575163224859653	-5.174715748612281	0.2987621363947366
O	0.9407365224859654	-4.13460427861228	1.2320887343947364
O	1.1973363724859654	-4.11562807861228	2.629109204394737
O	0.4697731744859653	-2.6907979286122807	4.630792494394737
O	2.533379892485965	-4.657781918612281	0.05088495629473655
O	3.1828085924859653	-5.91374812861228	-0.2688489666052634
O	-8.738046187514033	-1.0898569636122806	5.413341174394737
O	-10.862435497514035	0.7132019313877196	7.983799514394737
O	-3.3974492875140347	9.08093837138772	-9.344383825605263
O	-4.187630057514035	5.541067741387719	-10.356236845605263
O	-6.488627407514035	-2.6114142686122803	-14.321197345605263
O	-5.554115857514035	-0.4533235517122805	-11.320266545605262
O	-2.305478257514035	-1.7714365486122805	-9.803373285605263
O	-0.7121927705140347	0.9910794113877195	-7.704385085605264
O	-1.2642872145140347	4.54955704138772	-6.620708795605263
O	0.8832179924859653	7.59809201138772	-7.086477645605263
O	5.141189102485965	6.33912378138772	-6.654429305605263
O	6.911785822485965	3.3159316613877197	-5.184338815605264
O	9.905556102485965	1.7619587913877193	-6.981125315605263
O	8.402425032485965	-1.5548428486122805	-6.429541805605263
O	5.401928112485965	-0.5964388266122805	-8.650563455605264
O	16.474445102485966	1.1968934713877195	-4.467679205605263
O	13.048227302485966	-2.2477698786122806	0.43666568539473655
O	15.241913002485965	0.7701880713877194	1.1276251143947364
O	14.599827002485966	3.76578413138772	-1.1554135256052636
O	11.166854402485965	2.4462046713877195	-2.3820621956052634
O	10.463767302485966	5.513641011387719	-4.5239326956052635
O	-3.4664061775140347	7.96722192138772	3.2875649543947367
O	-5.568340537514035	7.14147000138772	0.23040296839473653
O	-5.975456907514035	4.548472761387719	-2.5014676556052633
O	-6.356115987514035	-1.0450088996122804	-2.642677045605263
O	-7.9920510375140354	-3.9353998786122806	-0.8131274516052635
O	-10.415622387514034	-2.8477956286122805	1.9394396343947364
O	-10.412705477514034	-6.078755578612281	3.9569161743947365
O	-7.914816647514035	-7.39581797861228	6.551684844394737
O	-8.864699297514035	-10.97778844861228	5.701899894394737
O	-10.036593447514035	-11.79603674861228	2.2187895243947366
O	-10.403515097514035	-9.28735845861228	-0.5494425006052635
O	-7.624086697514035	6.934660851387719	6.129065984394737
O	9.738386002485965	-4.810806838612281	12.490752354394736
O	-6.924089697514035	0.5839583613877195	10.018951554394738
O	-4.085153017514035	0.40034586838771946	7.424097024394737
O	-3.1556841875140345	0.6723693413877194	3.7848555343947368
O	-3.111492007514035	-2.5251156086122806	1.8409916043947365
O	-2.3262270675140346	-4.1404581386122805	-1.5083955256052635
O	-3.1611239075140345	-1.8826800586122805	-4.394192335605263
O	-2.521173007514035	1.1850307213877196	-2.292539945605263
O	1.2322742924859653	0.8505371813877194	-2.9181613756052633
O	2.8633069924859655	3.784820791387719	-4.392601395605263
O	0.1259390724859653	6.178687801387719	-3.180870425605263
O	4.644266892485965	6.609420461387719	-0.08259525910526344
O	2.727099882485965	3.3925445813877193	0.6123166293947365
O	5.5576420424859645	0.8431761813877194	0.5887581483947365
O	5.0374100324859645	-2.3911128586122805	2.603992504394737
O	3.839479652485965	-4.060922168612281	5.735375354394737
O	2.8636996224859654	-7.36251952861228	7.172192404394737
O	-0.4938695092140347	-8.39910694861228	5.947517054394737
O	-2.928033227514035	-5.5382295286122805	6.2882174443947365
O	-4.508250257514035	-4.0372265386122805	9.372590184394737
O	1.6198416624859653	-0.9626706296122804	11.183735454394737
O	2.1302525524859655	0.04701820338771945	7.554328994394737
O	5.623751012485965	1.0334834413877194	6.451123534394736
O	6.1112821324859645	4.04301278138772	4.215195364394737
