73

O	-1.2977971042416665	6.056605431183334	1.6670493275999996
O	0.9180883277583335	1.933408233183333	1.6649585875999997
O	2.3419337877583333	-0.06651372881666706	1.6082129575999997
O	-0.4415415762416665	6.826579691183333	2.6953263175999997
O	0.12015635675833347	2.218522111183333	0.5984082485999997
O	3.069164907758333	1.4220947871833332	2.8830807076
O	-2.8087356622416664	6.408709981183334	2.2678277475999997
O	-0.4572213882416665	3.514558551183333	0.31311289009999965
O	-0.8238253765416665	4.413845011183334	1.3314700475999997
O	-0.8630825758416665	3.485464211183333	2.3229289376
O	0.24878086775833352	2.6674429411833334	2.6399634975999997
O	2.061076707758333	1.109449695483333	1.9147124475999997
O	-1.2479439402416665	7.2159586811833325	0.2566322849999997
O	-0.7961998077416665	-4.853643498816666	8.912914947600001
O	-15.257666152241665	1.687815672183333	2.7440530776
O	-12.499000352241666	3.813603511183333	1.1602516285999998
O	-10.536352632241666	1.609373115183333	-1.2764378724000003
O	-10.351552142241665	-1.9218692588166668	-2.6119812624
O	-10.598000152241665	-3.215835798816667	-6.1517632224000005
O	-6.021676852241667	2.578464181183333	-8.2227105724
O	-5.723887332241667	7.685888601183333	-6.698941102400001
O	-0.7403033292416665	12.304577711183333	-8.9826542024
O	2.2150338377583334	8.248323901183333	-8.7486089924
O	3.1030989477583333	6.708576241183334	-12.1144350824
O	0.2828545477583334	4.736638161183333	-13.7926262824
O	-1.8086529032416665	4.422437411183333	-10.5849834824
O	-2.5839478222416665	-9.078045388816667	-0.7928165124000004
O	-5.961869102241667	-8.381428648816666	0.7753272285999997
O	-8.173517522241665	-5.576153428816667	2.0093890475999996
O	-7.440879842241666	-1.173832588816667	5.3967509075999995
O	-5.766800742241666	-0.15676589881666692	8.6569057276
O	-4.2602432722416665	-3.0908205188166673	10.5666743176
O	-1.8469781712416666	-1.151916208816667	12.7781192176
O	1.6223681577583333	0.28282257318333304	11.985976517600001
O	1.1481592777583334	2.986386211183333	14.591070117600001
O	-2.3171974422416666	4.315811921183333	15.2343471176
O	-5.424927552241667	3.0463065211833333	13.5747181176
O	12.831611347758335	-1.548297128816667	-4.3885177124000005
O	14.895970947758334	1.324608648183333	-5.846038372400001
O	14.245979547758335	1.6196798231833331	-0.5570929604000003
O	12.792223447758333	4.532824301183333	-2.5795014124
O	10.272115747758335	3.749738471183333	-8.676724952399999
O	5.787728547758333	-0.028388678816666957	-10.0228609824
O	7.755925017758334	-3.3979203688166666	-4.2627165624000005
O	6.411548937758333	-6.269236658816666	-2.2023631124
O	6.550713077758333	-7.093756858816667	1.4693661375999996
O	8.960026527758334	-7.423097358816667	4.3460522176
O	3.7616813677583334	-6.8628309888166665	7.4420174276
O	2.3696705077583333	-4.527508088816667	4.7360097876
O	-0.6864500022416665	-3.0803348988166666	3.0977242875999997
O	-1.8896076522416667	0.179314200183333	4.424937837599999
O	-4.415219782241667	2.9279159311833327	4.043550637599999
O	-7.782314162241667	1.7170728471833332	2.9277216775999997
O	-6.1850911122416665	-1.2647858688166669	1.1232317545999997
O	-5.389627842241667	1.019684415183333	-1.8393273524000004
O	-6.787822192241666	-0.15198502881666687	-5.158574342400001
O	-6.994743952241667	-3.765545338816667	-3.9894700524
O	-5.282684452241667	-6.852869238816666	-5.3145056724
O	-2.6546264922416665	-2.8937699388166673	-7.2663540724
O	-2.0945794722416666	-1.458038108816667	-3.7686879524
O	-0.7036774252416665	2.007959609183333	-4.5425276924
O	1.7698853877583334	3.574949151183333	-2.1418608824
O	4.503428617758334	3.286623791183333	0.4739591125999997
O	5.849326997758333	5.249905931183333	3.3818995675999997
O	3.6662242677583334	4.962891491183333	6.4021165276
O	2.7069624177583336	1.328246672183333	6.8345349676
O	4.773597787758334	-1.689077768816667	7.9000158376
O	9.870639747758334	0.8167727961833331	3.5133801476
O	8.037859897758334	-1.946890708816667	1.6398865875999997
O	4.680084687758334	-1.4050259488166668	-0.07651342440000031
O	4.743969087758334	-0.20224756881666694	-3.6918116824
O	2.2603805677583333	-1.5600196288166668	-6.1644995724000005
O	1.1070284077583334	-0.703276398816667	-9.6749951324
