74

O	1.435576924358491	2.972661594396227	2.966866479811322
O	-5.823827175641509	3.8847783143962267	2.3460455998113217
O	-5.393964455641509	2.8044006543962263	-0.3801514801886785
O	-6.108013505641509	2.6393153443962265	2.6093275998113215
O	-5.957186545641509	1.3349563956962265	0.4762836238113214
O	-4.832908235641509	2.1769698033962266	0.5501976978113214
O	-1.262160457641509	0.9844608273962265	1.6717582318113213
O	-2.6810907556415087	0.9731345013962266	1.2722862638113215
O	-3.4432694156415087	2.1233056213962267	0.9302975938113214
O	-2.295930243641509	2.7240870143962264	0.3976625528113214
O	-0.933234396641509	2.7517152943962264	0.9369029768113214
O	-0.444792433641509	2.0073997733962265	1.9636908798113215
O	0.9490819443584908	1.9509792163962265	2.4525034498113216
O	-0.637606786641509	2.9930287043962265	3.9241136398113214
O	0.843678194358491	2.8152189143962265	4.261216139811322
O	-1.605626914641509	2.4094306443962266	4.557894939811321
O	-2.932230775641509	2.463398204396227	3.8923582598113216
O	-3.499501865641509	3.1296947243962263	2.764518509811322
O	-2.590424315641509	4.204644394396226	3.1175530198113215
O	-1.191537702641509	4.210332044396226	3.672122059811321
O	-4.861973525641509	3.1369511943962265	2.2407416598113215
O	-7.967111515641509	-6.197058935603773	3.788914969811321
O	8.597539594358492	-9.572491435603773	-1.7762799701886787
O	11.698280694358491	-8.092562365603774	6.988004599811322
O	9.144264394358492	-7.814129175603773	4.177818949811321
O	8.468266784358491	-4.088509225603773	3.5286296598113216
O	6.939315724358491	-3.818622845603773	0.013201759811321434
O	5.790102114358491	-5.878406745603773	-2.9864034701886784
O	6.821834224358491	-5.731359805603773	-6.600580290188678
O	7.55428393435849	-1.4060446656037735	-7.601263240188678
O	6.617912744358491	1.9237230663962266	-6.0297254301886785
O	9.160500594358492	4.776852814396227	-5.756780620188678
O	8.072018924358492	5.2957086443962265	-2.1485135201886782
O	9.377825394358492	1.8562362223962265	-1.2915943201886784
O	8.638633494358492	11.113287734396227	-8.732790340188679
O	7.325098104358491	12.392112464396227	-2.5187051901886788
O	3.021056474358491	11.157765934396227	-4.8118040501886785
O	2.9334715943584904	11.690051164396227	-8.58952653018868
O	4.9222605243584905	9.116499674396227	-10.616771320188679
O	5.11987347435849	6.567767174396226	-7.7326255101886785
O	6.98764554435849	3.9513742243962264	-9.716412120188679
O	-2.155423604641509	-9.013962035603774	-4.119887810188678
O	0.4269325743584911	-8.810758235603773	-1.3442116101886785
O	0.5166688743584911	-6.447016945603774	3.721064119811321
O	-1.715671452641509	-5.9614433056037734	6.7498250898113215
O	-5.091372755641509	-7.802664865603774	6.564735949811322
O	-7.01443728564151	-5.744699325603773	9.165735629811321
O	-8.55776626564151	-2.1442277256037734	8.695578859811322
O	-8.149804375641509	-1.6156718056037733	12.49351157981132
O	-5.141515455641509	-3.104525045603774	14.23080647981132
O	-2.562752205641509	-5.240745785603774	12.53289967981132
O	-9.574569595641508	12.230769264396226	-2.3747061001886784
O	-11.776099105641508	-4.098161345603773	0.9685582848113214
O	-8.507796875641509	-2.1549156256037736	0.3064458438113214
O	-4.861711545641509	-2.5481082256037735	0.03942029081132137
O	-2.981519435641509	-1.7710474456037733	2.970661339811321
O	0.635041934358491	-1.1506478956037736	4.388874119811321
O	3.151382164358491	-3.679543475603773	3.2463673698113213
O	1.2384107343584911	-4.244165295603773	-0.06565450118867855
O	2.8650110143584904	-1.1631419756037733	-1.6206303601886785
O	4.732502544358491	-1.5854226756037733	-4.762732100188678
O	2.809100944358491	-4.749752035603773	-5.591702570188678
O	-0.19684027564150908	-0.20402204560377335	-4.9441377901886785
O	0.6011420943584909	3.4282754043962265	-3.902654640188678
O	-1.525632490641509	5.227190004396227	-1.1872455801886785
O	-4.556827265641509	5.734462914396227	0.4296135338113214
O	-5.985010345641509	6.528185604396227	3.3668525498113215
O	-5.785021825641509	4.134150814396227	5.906618379811322
O	-6.896049925641509	0.8847531113962266	4.900089109811321
O	-10.160452345641508	-0.03437572560377333	3.8758429898113214
O	-11.022678855641509	6.115832204396226	1.2592315168113215
O	-10.158112175641508	3.8572837143962264	-1.2828953001886785
O	-6.781821975641509	3.0015352843962266	-1.7814789701886784
O	-5.040378255641509	4.8843866043962265	-4.421589400188679
