26

O	26.081141054896346	19.551148007387944	29.026199078647082
O	30.07434771029966	15.279031244032222	27.174487897017766
O	29.02783645264513	17.63945951164048	27.774773618923053
O	27.8321021298905	18.411355613658472	28.007791074752255
O	26.49271459683091	17.917378353755826	27.641294790993893
O	27.424249693751296	19.244348247016617	29.0856745238372
O	26.618549258671123	16.60027673926662	27.143830143584882
O	25.504039536040445	18.38570574530902	28.531886879120886
O	27.760761628330176	15.772248994323911	26.872154718364918
O	29.963732468627537	13.87431712461412	27.215981438335394
O	29.065371007750723	16.235838591463047	27.38693223845545
O	31.463358937200397	15.427087703084226	27.088629434541918
O	28.918878007001503	15.906096521163011	30.083284174828897
O	30.796193445249678	14.12976829298906	29.90848991271246
O	27.806548387683872	15.032278441491544	29.904877831214446
O	31.183588643542063	16.53825415469778	29.78054227550528
O	26.605971298353335	15.862674654376658	29.947337886725904
O	25.25603876461398	17.789512375242833	30.570523047145382
O	26.376941036124798	16.992393532220838	30.760400669756862
O	27.129584707500207	19.032364903764933	31.237595907593928
O	27.525785476050917	17.697507288419878	31.21343168820799
O	28.781175962162862	17.176801720602512	30.80383742792427
O	30.297083035916955	15.450904263011502	30.008795674233053
O	25.725435946370283	18.99570714560765	31.008242241677042
O	25.378760655439752	20.111645278463495	30.180236902352
O	26.185926718799646	21.192342676584868	30.592617291939384
