17

O	24.751406012686388	19.467733706515624	30.519275881830644
O	24.101391764533094	20.665416690524182	30.90636552173803
O	22.628891228445227	20.737862697324736	30.862569467224866
O	22.041380711484504	20.722688050137805	31.98617148565953
O	24.53390980626673	21.49008710973309	32.08115362953309
O	22.072508383205243	21.63678101681453	29.941511057280515
O	28.72579117338747	16.55321692391246	28.706390648972516
O	29.76060930820873	14.668654363625445	27.60834481066664
O	27.025410077881908	19.0231193343016	31.02543405968904
O	28.690520242436257	17.751790420389014	29.44917875845666
O	31.199551147882527	15.710727979683597	28.668537694031812
O	27.469038397154574	18.310358551893607	29.877396348374987
O	26.29096806617576	18.088198477148303	29.16205117037519
O	26.385351878195184	17.09592743186553	28.219820097600525
O	27.56800484269984	16.38206445633326	28.0072772090892
O	25.080315423667997	18.91828684548861	29.409936687138376
O	29.79083793507785	15.559152256875011	28.4961266064619
