16

O	29.919909735771057	15.205890274790436	28.52021006678572
O	29.941449542644126	13.979164846576655	28.171339279070892
O	23.119279019360533	19.685704450291524	28.25662116419071
O	28.69408489000248	16.018076099614554	28.565982973091362
O	24.47827047034341	19.276064867201335	28.448839612497444
O	22.02745457678766	22.15197786134508	26.39944059295352
O	27.711882736765695	15.601563782792367	27.76885606017366
O	31.15625459197912	15.614556517472728	29.057458160767396
O	20.53359888385782	20.749458216043102	27.27311039510262
O	26.505708181286685	16.275183049090312	27.500244728460313
O	26.18418689965087	17.458990104041945	28.155690615828146
O	24.884457652832015	18.08326572701749	28.23114388583666
O	22.69932530552987	21.01864308108509	28.277161978042507
O	21.844346600169434	21.12575887742936	27.079580455710186
O	27.145849996731137	17.746798193362284	29.033572036008483
O	28.459680786338954	17.263219525711893	29.052144785145227
