84

O	-1.339331655189655	2.5611552681206904	-2.9675903829689654
O	-4.313068962189655	-0.5533172818793095	3.7939523370310346
O	-3.230723342189655	-0.9914204918793095	3.1294926070310347
O	-4.256046832189655	-0.31786453187930963	5.2342773470310355
O	-5.299805952189655	0.6758650216206905	5.767179317031035
O	-6.525416502189655	0.3785512981206905	4.880515097031035
O	-6.1714209721896545	1.2013570611206905	3.6218056570310346
O	-4.812732852189654	0.7681404940406905	3.339111797031035
O	-2.062945982189655	3.81985692812069	-0.7999124029689653
O	-4.8288727021896545	-1.4738482618793094	5.962934447031035
O	-2.595077122189655	5.90080630812069	-1.7435281929689652
O	-2.320832632189655	2.6093213081206903	-1.5662267729689652
O	-4.831203162189655	-2.5938769118793097	5.0582185970310345
O	-0.9450017501896552	4.80743000812069	-2.850479942968965
O	-2.5135875221896553	1.4673770131206905	-0.6651410529689652
O	-4.552515902189655	-3.8241438818793094	5.8543340770310355
O	-3.510468052189655	0.7756908910206904	1.4990516600310348
O	-2.709697482189655	1.7118100261206903	0.7613544090310347
O	-5.1183471721896545	-3.64099297187931	7.220869137031034
O	-4.233921022189655	2.6461382381206904	2.086401267031035
O	-3.2865887021896554	2.9420560381206906	1.1045722430310347
O	-4.017989102189655	-2.8496421718793092	7.831767817031034
O	-3.1940006321896552	3.9619871481206905	0.10976627403103467
O	-3.796376282189655	-1.6477397218793095	7.008678727031034
O	-1.6519566521896554	4.89529454812069	-1.6618848129689652
O	-3.726076362189655	1.4829148481206906	2.7215152970310346
O	6.300845837810345	8.08636657812069	1.3913916440310348
O	9.027565957810344	9.921055568120691	-0.4981745129689652
O	7.529820337810345	-10.58748068187931	1.2065837860310347
O	6.324566307810345	-9.317176081879309	4.556102017031035
O	3.992004197810345	-7.52911950187931	13.451287017031035
O	4.335734377810345	-6.5698238918793095	9.773926487031035
O	0.8936746478103449	-5.83627568187931	8.395436897031034
O	0.9619598378103448	-6.09370169187931	4.588553557031035
O	3.283860757810345	-6.86912586187931	1.7257409110310347
O	3.0717810578103446	-9.53323228187931	-0.9486073929689653
O	4.9461163978103455	-10.82208488187931	-3.9740695129689656
O	-1.2678538951896552	-9.98209778187931	-2.078099642968965
O	-4.4048501121896555	-7.81053766187931	-1.5158536229689652
O	-7.749426522189655	-9.37030758187931	-0.4807795229689653
O	-8.201907002189655	-6.692204291879309	2.0079452270310347
O	-5.054569752189654	-8.13477265187931	3.7968702270310346
O	-13.732411562189656	-9.31362638187931	-4.200261892968966
O	-12.686387262189657	-2.5530541418793096	-3.518930012968965
O	-10.892181062189655	-7.427018821879309	-7.295928382968965
O	-8.581742192189656	-6.5811550718793095	-4.312121392968965
O	-6.359687542189655	-9.604470281879308	-4.771680212968965
O	6.738335397810345	0.009280505120690452	-5.701036362968965
O	8.134595087810345	-1.2875386518793095	-2.4060325629689654
O	7.136598507810345	-1.9826227018793097	1.1874947820310346
O	4.442830927810345	0.8634591201206905	5.223138627031036
O	4.223362287810345	4.31223632812069	6.773187947031035
O	6.832331927810345	6.759893028120691	5.395458127031034
O	5.065844337810345	9.974209758120692	6.383799097031035
O	2.215467917810345	11.865220018120691	4.660338027031035
O	1.6876274378103449	11.349395718120691	11.134810417031035
O	3.289977577810345	7.967530318120691	11.259760917031036
O	9.669484737810345	4.20334505812069	-4.9727968629689645
O	-11.430463662189656	9.36803343812069	-8.176708302968965
O	2.362387957810345	8.011379948120691	-8.642881532968964
O	5.610540517810345	10.29641179812069	-3.2940634229689656
O	3.1911324078103447	7.36591133812069	-2.803773302968965
O	2.6257708678103446	4.020036928120691	-1.1768897929689652
O	0.8250898378103447	4.09695498812069	2.1778288670310344
O	-0.7454838171896552	1.9688772481206904	4.913213017031035
O	1.314736707810345	-1.1705326918793095	5.556187387031034
O	2.4376277778103446	-1.2755146118793095	1.9116582370310347
O	-0.8543076311896551	-2.9018127518793095	0.9522426642310348
O	-0.6574104681896552	-6.1521395318793095	-0.8302606829689654
O	2.8651708178103448	-5.43554553187931	-2.0345987229689655
O	4.2555492978103455	-5.18095600187931	-5.552284312968965
O	-0.8837890941896551	-4.69357347187931	-6.011630002968966
O	-0.9285304281896551	-1.9097733618793094	-3.499772892968965
O	-4.681606202189655	-1.4864608718793095	-2.7330728429689652
O	-6.0659525021896545	1.9574762481206904	-1.8921787029689652
O	-5.862051652189654	5.72917779812069	-2.105193122968965
O	-6.961761292189655	8.918464838120691	-0.2589017729689653
O	-4.613420782189655	9.538936078120692	2.6610009870310347
O	-1.014260284189655	9.094668368120692	1.4884469770310347
O	1.0949842778103447	11.29099421812069	-0.7727186129689654
O	-2.454116952189655	9.136471628120692	-6.561863102968966
O	-2.2714508721896554	5.5266867481206905	-5.391888292968964
O	-4.758305512189655	2.9853346381206904	-6.670452262968965
O	-3.573448272189655	-0.5140728418793095	-7.488900272968964
