77

O	-1.89420262047541	-4.3020505185267215	1.5773585425245906
O	-2.8103184004754103	-3.4477596985267205	1.8162858125245906
O	4.093722289524591	-2.8991833685267205	-3.77226036747541
O	-0.8481197744754101	-4.113006158526721	0.5594775165245904
O	3.25837620952459	-3.5158132585267206	-2.7859968074754096
O	7.30765211952459	-2.2899966685267206	-3.5599690274754097
O	0.0918208655245899	-4.961475488526721	0.0714641695245905
O	-2.13117256047541	-5.519332038526721	2.2458897325245903
O	6.16782623952459	-1.415240338526721	-5.26425835747541
O	0.9085427395245899	-4.518487888526721	-0.9763543464754094
O	1.3033639995245898	-3.271221008526721	-1.2304486074754095
O	2.1981207595245897	-2.9710890285267206	-2.32356656747541
O	5.3624474295245905	-3.3699138385267204	-4.12296729747541
O	6.19683779952459	-2.1539725585267204	-4.102948317475409
O	0.4661978485245899	-2.3818850685267208	-0.5657463514754095
O	-0.5836493103754101	-2.8449832185267208	0.2498030545245905
O	1.7163592895245898	-0.2835878065267208	9.589903322524592
O	0.13141931052458988	0.9678802714732792	12.79915678252459
O	7.051224109524591	10.09443097147328	-3.7035142474754097
O	15.088406619524589	5.592932631473279	-3.9468891574754097
O	11.41248331952459	5.781612481473279	-3.0342141574754096
O	9.35619649952459	2.9894799614732794	-4.677210577475409
O	5.68181200952459	4.056462471473279	-4.76089167747541
O	3.43607987952459	6.921270881473279	-3.76198046747541
O	1.14130977952459	9.09274878147328	-5.8410934374754095
O	-1.2854033084754102	11.99184237147328	-5.50878577747541
O	-0.7142391484754101	6.448319531473279	-8.96494189747541
O	-1.11637060447541	2.6808660214732796	-9.39746011747541
O	-0.5757785653754101	0.9477267044732792	-12.764937717475409
O	1.4784789395245896	-1.693524738526721	-11.000563717475409
O	4.00618637952459	1.071109631473279	-10.135076027475408
O	-5.45240959047541	-6.297709468526721	-10.685371817475408
O	-8.07612510047541	-0.9873612185267208	-13.112704717475408
O	-4.84278631047541	-0.5093415555267208	-11.063185217475409
O	-4.47835989047541	3.1727527814732794	-11.919220317475409
O	-4.02114486047541	6.7703811914732785	3.9127570225245902
O	-0.4036183154754101	7.889847261473279	3.7626506925245904
O	2.99720716952459	6.820875481473279	2.4979999525245904
O	6.61732730952459	5.879955711473279	3.0417285525245905
O	6.06358504952459	2.1245707614732794	2.8274542025245903
O	7.0508089495245905	-0.5962105695267207	5.28428220252459
O	5.87352661952459	0.06100442247327924	8.865212272524591
O	6.078062949524591	-3.5050052085267205	10.191440882524592
O	3.6483933695245896	-6.4457500685267215	9.745055442524592
O	6.503999389524591	-8.91776384852672	10.096834282524592
O	9.93017281952459	-7.936333408526721	8.868971922524592
O	10.79251441952459	-4.590767498526721	7.41850818252459
O	-3.3209592504754104	6.107904391473279	8.987445752524591
O	-12.151516780475411	-11.37638182852672	2.96816114252459
O	-11.105681180475411	-11.98365642852672	-0.6706517494754094
O	-8.70161550047541	-0.9408646435267207	7.1751260725245904
O	-3.2438230804754102	-1.1836963885267209	10.89541518252459
O	-2.8165690604754103	-1.1944758985267208	7.089567052524591
O	-0.9022545634754101	0.12547312647327924	4.12185778252459
O	1.99783212952459	-1.954672768526721	2.9644471225245903
O	4.67120446952459	-2.3590201885267206	0.33748420452459055
O	6.06438145952459	0.9952695514732793	-0.7954984894754096
O	2.7131387095245896	2.6991808014732794	-0.045239873475409476
O	1.35731651952459	1.4905702714732791	-3.3882538574754095
O	0.09230756452458988	4.195504471473279	-5.69650291747541
O	-0.5101731885754102	6.608559161473279	-2.8157078574754095
O	-3.7107947904754104	8.23805401147328	-1.6137554674754093
O	-5.160553410475409	4.289272161473279	-4.592346077475409
O	-3.0916727404754103	1.852211221473279	-2.5378088274754096
O	-3.2155162404754103	-1.2931091385267208	-4.7023732774754095
O	-3.0415820804754103	-4.7066890085267215	-2.9951098774754095
O	-3.7097898404754104	-6.951477428526721	-0.024249914475409473
O	-2.42254730047541	-10.09251262852672	1.5852971925245907
O	0.7535370295245899	-9.45368462852672	3.4671518425245904
O	0.38820327352458994	-6.334353058526721	5.536279312524591
O	-1.72188503047541	-5.704802868526721	8.626793602524591
O	-6.959233410475409	-9.35223739852672	5.29440737252459
O	-7.69876677047541	-5.644554718526721	4.8532913325245906
O	-5.99240506047541	-3.4744211885267204	2.2453780525245906
O	-7.55762848047541	-3.3013470785267205	-1.2116088164754095
O	-7.63559313047541	-0.03902125639672076	-3.0846632274754096
O	-8.45667875047541	1.1462644414732792	-6.598247457475409
