11

O	27.058560212979	15.48477823326202	28.069152638575684
O	26.75292466150914	16.800421223421544	27.998495832854683
O	27.71934159151392	17.595211280935615	28.48772967996945
O	28.96971827145436	17.134747301318583	28.088038138853026
O	29.18839248800061	15.831398075110343	28.280648711434626
O	28.296167029739976	15.069917771379927	27.65739782513645
O	30.4804651155905	15.287820325595037	28.207504047422844
O	30.877765357355987	14.212840383273447	27.71622431407952
O	31.468539159865905	16.07071841880774	28.691552554143428
O	25.56379074151046	17.240883169277588	28.695844051523142
O	26.35462492237234	14.694911483213499	27.298105415681793
