31

O	29.421312722325577	14.307877713961073	27.902468302266225
O	30.784786154345603	15.786288269041648	28.113748525941084
O	29.423478963317145	15.524370283564211	28.22754533683296
O	28.434269505646228	16.38097307578022	28.80633997941387
O	27.189712587806365	16.444119007902398	28.26726538512165
O	26.202474798865634	17.015404254848292	29.06167557100141
O	26.412469249938447	18.23782825259825	29.65969832687635
O	27.650337960880872	18.156321734060917	30.303285438622595
O	28.683310783140683	17.410372045578995	29.71787204896139
O	25.214648793634765	18.80503113237759	30.245091840883354
O	24.70028004084777	20.10614496509472	30.05324294742817
O	23.272990783270437	20.170703031564482	29.719705112437296
O	22.39395171066621	20.493397968506414	31.02416762050152
O	23.400171065693502	21.5017812347036	31.545999288310057
O	24.598494587216248	20.60967940666115	31.38599116629794
O	23.923380759786248	19.29828471595915	32.00734956901878
O	24.10852447610377	19.57677538727704	33.45487712362562
O	25.501260732100132	19.902688958328408	33.32083679494621
O	26.075329707065514	18.848683214527647	32.64196709690864
O	27.16042438661974	18.29359301112241	33.00251499578205
O	25.029724725348306	18.37938735164888	31.662863386051246
O	26.108902822430494	20.733810181409062	34.28723822667051
O	26.27282898342229	19.61348408451801	35.31397620205949
O	25.19750246387434	18.98747552592515	35.87622903194051
O	25.51917888439053	18.247828023527834	36.99295104953869
O	24.692846764951792	17.704416212861272	37.98880813179195
O	25.5671858238434	16.75627091569663	38.6263113960074
O	26.837558466873205	17.329124191955753	38.555032279687616
O	26.672621225447973	18.45831845222652	37.742653082226035
O	27.637840272305965	19.233133499921422	37.177464823879
O	27.25386122380499	20.096849143354458	36.19749818669184
