78

O	3.32382298445	2.171537954083334	-3.6992469598833324
O	2.33826478445	2.616919384083334	-4.356295729883333
O	3.21663227445	-5.015506535916667	-0.6147281028833327
O	3.28438101445	0.9195901680833338	-2.9112295898833325
O	3.52027939445	-3.739379005916666	-0.9360275028833327
O	4.57958199445	-6.013524665916666	0.8195691501166673
O	4.17835880445	-0.14683490291666623	-2.8713917098833326
O	4.42344984445	2.541506444083334	-4.493920059883332
O	3.7259057244500005	-1.4051825859166662	-2.4216240498833326
O	2.9746419044500003	-1.4088608659166664	-1.3035675498833326
O	2.7626959444500003	-2.716503295916666	-0.6622975678833326
O	3.9704689544500003	-6.149696075916666	-0.4381106098833326
O	3.5745495744499998	-6.221844295916666	1.7391699201166675
O	3.3579227344500002	-7.706172155916667	1.8277928201166673
O	3.6939920944500004	-8.359704785916666	0.5184236051166673
O	3.10309473445	-7.401853435916666	-0.5120397648833326
O	2.0845262944500003	-0.36965504691666623	-1.2733468668833325
O	2.2647012444500003	0.7626790170833337	-2.0688240098833326
O	6.402838994450001	8.130584504083334	3.4871434401166677
O	-5.09720193555	-2.511826275916666	11.708404170116667
O	1.9463423644499998	-7.864530285916667	14.487864770116667
O	0.43369123044999996	-5.248534795916666	12.183309870116668
O	0.47658594944999993	-6.436662305916666	8.566704370116668
O	-2.11455660555	-4.472541975916666	6.556645370116668
O	-4.68799702555	-1.7643031559166662	6.962825330116668
O	-8.41332959555	-1.8011384359166662	6.322735010116667
O	-11.46592287555	0.4434318690833338	6.5163060301166675
O	-9.11303750555	-4.283571645916666	2.6538104801166678
O	-6.899965015549999	-5.527660875916666	-0.1960689798833326
O	-7.19129232555	-9.097691745916666	-1.5480357298833327
O	-3.4165664255499997	-9.358647245916666	-1.4553878298833327
O	-3.59305889555	-9.018039045916666	2.3591290301166676
O	-8.962482325549999	-10.968183905916666	-8.078995769883333
O	-2.58192486555	-11.996543605916667	-8.086226869883333
O	-3.36093660555	-7.214536155916666	-9.398464209883333
O	-6.78060457555	-6.487046125916667	-10.901368529883332
O	-9.67344424555	-6.419599625916667	-8.392246229883332
O	-7.3890363055499995	-6.082671145916667	-5.318950179883332
O	-10.21401311555	-5.9013243759166665	-2.8020420998833324
O	-4.31354452555	8.131812944083334	2.8647516101166675
O	-3.37625682555	6.608234604083333	6.213038270116668
O	-1.60192117555	3.642093314083334	7.759046890116668
O	3.36471358445	1.1290075980833338	6.991200940116667
O	7.0184401244500005	1.9513150640833337	6.4015127901166675
O	7.834221004450001	5.674028754083333	6.627377180116667
O	11.11058572445	5.652058104083333	4.679618920116668
O	11.72701182445	5.5578146940833335	0.8812943501166672
O	15.04883932445	3.810341104083334	1.4214954301166673
O	15.44630562445	1.5227499940833338	4.389769120116668
O	12.768205924450001	0.8367371770833338	6.925061540116667
O	3.03183782445	2.066006664083334	-15.417716029883332
O	-3.29197315555	-0.027130359916666208	-15.146592029883333
O	0.49146250845	10.813131594083334	-5.036457409883332
O	5.26167029445	11.264899394083333	-0.5053041478833327
O	3.5426757344500004	7.838207914083333	-0.9552482618833327
O	1.97633054445	4.982712014083334	0.8734551001166673
O	4.25378167445	1.9511708740833338	1.3379342501166673
O	4.50442818445	-1.6394246759166662	2.5724686501166674
O	2.27286532445	-2.219564705916666	5.585405240116668
O	-0.18514996755000002	0.4698976980833338	4.3966383501166675
O	-1.69365842555	-2.018383495916666	1.9362739501166673
O	-5.41640566555	-2.578362505916666	2.3613074001166674
O	-5.9331114955499995	0.7899648660833338	4.059700230116667
O	-8.00466869555	3.750059484083334	3.0035668501166675
O	-7.52454798555	0.8513910740833337	-1.2095051938833326
O	-3.7146307355499997	0.8825997510833339	-0.8983954528833327
O	-2.73451972555	-1.7623755259166662	-3.4572006898833325
O	0.6677244044499999	-1.3283451159166662	-5.165074849883332
O	3.38766815445	0.7072097880833339	-6.6584408198833325
O	6.98798579445	0.5474881320833338	-7.348303349883333
O	9.06176664445	0.7556042760833337	-4.291302359883333
O	7.8807371044500005	3.620896504083334	-2.1926904798833324
O	8.00024741445	7.351583754083333	-2.7676285498833324
O	6.2669010944500005	5.955838404083334	-9.596787769883333
O	3.06749833445	7.041618254083334	-7.8166787898833325
O	1.05868060445	4.682289234083333	-5.599548259883332
O	-1.60533053555	2.581941474083334	-7.2708595398833324
O	-4.94095415555	2.033918244083334	-5.574274519883333
