78

O	-2.7433778213709683	3.3946314581435484	-2.6276908303919355
O	-2.802345761370968	2.329602839143548	-3.3737472603919354
O	-1.429704308970968	3.035323028143548	5.3077956796080645
O	-2.528992331370968	3.346816998143548	-1.1985787103919354
O	-1.5153303943709682	3.4745617181435478	3.9733588196080643
O	1.201241368629032	3.496013248143548	7.322714689608065
O	-1.7940968793709682	2.3141391841435484	-0.7845812503919355
O	-2.959063431370968	4.551219648143548	-3.3902011803919354
O	-0.22661719137096803	1.844800824143548	7.7594805896080645
O	-1.341433720480968	2.090849550143548	0.5269668236080646
O	-1.7420474923709681	2.887172108143548	1.5657232996080648
O	-1.660749183370968	2.6465504681435483	2.9814079896080643
O	-0.8820011103709681	3.7158658281435484	6.391386319608065
O	0.18340740862903182	2.879828158143548	6.951904849608065
O	-2.516873561370968	3.8701786881435485	1.1242616196080646
O	-2.797642111370968	4.227521318143548	-0.19939506239193538
O	6.415201298629032	4.541664238143548	-5.8008351603919355
O	8.039281368629032	3.9971001981435483	-9.188866420391935
O	6.995599118629031	-10.905450601856451	2.2077146296080645
O	7.3882883686290315	-6.800217331856452	7.747542549608065
O	9.632959038629032	0.16815738814354808	13.359960829608063
O	8.073269738629032	-1.1624586618564516	10.166079479608063
O	4.361858068629032	-0.22670187185645196	9.865359179608063
O	2.6814856486290317	-2.6458208618564516	7.420921469608065
O	3.4731345786290317	-5.623378731856452	5.218268899608065
O	2.0311814986290315	-9.113447101856451	5.189368679608065
O	2.3319471386290322	-12.413991101856451	3.3422481496080643
O	-2.352428581370968	-8.74534130185645	6.111382719608065
O	-4.878444051370968	-5.891331911856452	6.060896599608065
O	-7.468531651370967	-5.417821371856451	8.836400169608064
O	-6.617075811370968	-1.732788631856452	8.912424559608064
O	-3.0935294513709684	-2.7138903918564514	10.085920519608065
O	-13.057905061370969	-0.5056179318564518	3.8349551396080646
O	-13.238666961370969	-6.9158450518564525	3.8849846596080644
O	-9.822904731370969	-5.301997291856452	4.630540489608065
O	-8.126180511370968	-8.562535161856452	5.582896259608065
O	3.4221828186290324	-5.747284341856451	-5.486717690391935
O	6.106706468629032	-5.276701571856452	-2.8563960903919354
O	6.835294708629033	-3.461846191856452	0.37887449790806454
O	8.819620338629031	-1.0081483118564518	2.4647438996080644
O	6.340714888629032	1.848294221143548	2.1384461996080644
O	6.907505308629033	5.419124158143548	0.9916977866080645
O	8.669073538629032	5.670382448143548	-2.3992886703919356
O	7.651678408629032	9.228080418143549	-3.2951018403919354
O	4.358877728629032	10.572018098143548	-4.732945050391935
O	4.937622508629032	13.923645598143548	-3.0496983003919356
O	6.818058648629033	14.041024098143549	0.21351189660806458
O	8.28416222862903	11.052184888143548	1.9325855696080647
O	6.4927848186290325	-3.095639041856452	-8.692669300391936
O	-11.811495861370968	5.904670068143548	-10.821389270391936
O	-13.651966461370968	5.542476978143548	-7.477160420391935
O	-1.6131261473709682	8.928143548248002e-06	-11.271029170391936
O	3.724354808629032	3.764498418143548	-10.188127570391936
O	1.737617748629032	2.574517548143548	-7.154574500391935
O	1.8305917886290317	1.183426249143548	-3.6498611003919357
O	1.7568566286290321	3.6860062181435485	-0.8452278903919354
O	1.6212189486290318	4.1650648281435485	2.8605645396080646
O	3.612874198629032	1.4969515411435481	4.739451809608065
O	2.9674782686290317	-1.041092801856452	1.9185088796080647
O	-0.4991149663709681	-1.7167700218564519	3.3839088896080645
O	-1.153525445370968	-5.361010661856452	4.241403779608064
O	1.482551928629032	-6.606168571856451	1.8042422096080646
O	1.1384940386290319	-8.830685101856451	-1.2351809803919354
O	-3.6162167513709678	-7.160982231856451	-0.16808093339193542
O	-2.471526671370968	-3.5382064718564514	-0.2864384103919354
O	-5.517978511370968	-1.7157252718564517	1.1186243686080646
O	-6.248482191370968	1.8464852901435482	-0.057079774391935456
O	-6.096422291370968	4.526340758143548	-2.7350189603919355
O	-6.094941321370968	8.290283578143548	-3.0911708203919357
O	-2.7158424813709683	9.722801158143549	-2.2566535503919356
O	-0.04014006137096815	7.640750228143548	-3.9218852903919355
O	0.8624411186290317	7.372184628143549	-7.6036423903919355
O	-6.222548931370968	7.130852308143548	-8.903425690391936
O	-4.927676181370968	3.548083738143548	-9.006481580391936
O	-4.278011851370968	1.4485513842435482	-5.906730910391935
O	-7.156555841370968	-0.5219789718564518	-4.430662000391935
O	-6.552458711370968	-3.988675961856452	-3.0746256303919357
O	-8.479270261370969	-6.556078761856452	-1.0574639403919353
