88

O	-2.206880411722221	0.09185547462777777	4.049403251207408
O	-4.368975740722221	-0.1715821753722222	4.320484371207408
O	-3.3605292087222214	0.5517345946277779	3.670214331207408
O	-3.484374049722221	1.321015870627778	2.455882181207408
O	-4.633436890722221	1.4889069066277778	1.6918671412074076
O	-4.675233310722221	2.3492380026277777	0.5866427312074076
O	-3.610964719722221	3.208355654627778	0.32785927120740777
O	-2.4407408597222213	2.655664775627778	0.8339354912074077
O	-2.393538712722221	2.0101570896277776	2.0308060012074076
O	-3.388113527722221	3.9445247146277778	-0.8995640317925923
O	-3.9699035207222213	5.2003627246277775	-1.1855943708925922
O	-2.902231420722221	6.032206874627778	-1.7152060177925923
O	-3.054700585722221	6.226278204627778	-3.2671697187925925
O	-4.589479320722221	6.235984894627777	-3.2423864387925923
O	-4.737581100722221	4.9671843346277775	-2.3817956487925924
O	-3.660568274722221	4.132089084627778	-3.151642498792592
O	-4.492199210722221	3.400755944627778	-4.0814892087925925
O	-5.283158940722221	3.8900061646277777	-5.160077578792592
O	-5.286269650722222	2.746095344627778	-3.041970378792592
O	-4.312220280722221	2.137192225627778	-2.2146275687925923
O	-4.486963430722221	0.9734425846277779	-1.7815802027925924
O	-3.2105559347222212	3.1295983146277777	-2.1339697257925923
O	-6.597995300722221	2.284282417627778	-3.197578828792592
O	-6.5778341507222216	1.212169626627778	-4.190529338792592
O	-5.611907450722221	0.2879434046277778	-4.446774538792592
O	-5.934313260722221	-0.6098139553722219	-5.432753968792592
O	-5.311847860722221	-1.3301339053722223	-6.423476948792592
O	-5.860975080722222	-2.6513019753722222	-6.341181258792592
O	-7.186349070722221	-2.315282815372222	-6.049195498792592
O	-7.250131520722221	-1.0033285253722222	-5.598960838792592
O	-8.147386580722221	-0.44678571537222234	-4.731345538792592
O	-7.926188160722221	0.8644122096277779	-4.4135337487925925
O	-5.339046370722221	2.8373423146277776	-6.2068934387925925
O	-6.703891640722221	4.061518654627778	-4.630293598792592
O	2.3788069892777792	12.647624154627778	-0.5361473947925923
O	4.215923889277779	9.319966944627778	-0.32026026579259226
O	7.191085219277779	7.778026014627778	1.3967876012074079
O	10.303805029277779	6.150099904627778	0.0025122812074076517
O	13.53544222927778	4.478147064627778	1.0976301112074076
O	9.05668662927778	3.825290314627778	-3.616942178792592
O	5.71032863927778	2.553488643627778	-4.950170028792592
O	4.832234769277779	2.790961014627778	-8.657183148792592
O	1.4410953492777785	4.0977330846277775	-7.691523388792592
O	3.0940058292777786	7.181120434627777	-6.164946068792592
O	3.539643569277779	-2.596818205372222	-12.985945458792592
O	-0.20840746072222105	-3.019364595372222	-13.426836058792594
O	-2.3611975657222213	-0.2551114653722222	-11.963306058792593
O	-5.422683560722222	-2.532158555372223	-11.875358158792594
O	-3.997067780722221	-5.698373015372223	-10.257205028792592
O	-1.328893620722221	-3.673566695372222	-8.341942898792592
O	1.208034749277779	-6.227636275372222	-9.192744078792593
O	4.794126249277779	-4.923437095372222	-9.229577028792592
O	3.9622208492777786	-1.729861525372222	-7.230764038792592
O	7.59609802927778	-0.5205656753722223	-7.1621069687925925
O	-8.628813210722221	4.3865588346277775	11.348887341207407
O	-11.720001030722221	6.564983284627778	11.020648041207407
O	-11.29123545072222	10.178085994627777	10.045645641207408
O	-7.994085070722221	-10.719334945372223	0.07041038120740772
O	-9.28545418072222	-13.597859845372222	-2.0848958237925923
O	-5.972821670722221	-10.396240045372222	-5.1759744487925925
O	-2.6419589356222213	-11.407396845372222	-3.7514109887925926
O	0.10065540927777894	-6.269528765372223	10.429649041207407
O	-2.323616411722221	-1.1354495953722223	13.848963941207407
O	-1.511467000722221	-0.5939943353722221	10.159716041207407
O	0.026073299277778794	1.6638500887277778	7.591941911207408
O	-2.352214491722221	4.0384746846277775	5.881686561207408
O	-2.662112357822221	6.692880124627778	3.332805321207408
O	0.3760906492777787	8.839835284627778	2.872335861207408
O	2.557553819277779	5.926869774627778	4.052639771207408
O	2.5429641792777793	4.485418154627778	0.5393577212074077
O	5.90481945927778	3.959011954627778	-1.0436810199925923
O	7.645372529277779	3.8457000546277778	2.3488401212074077
O	9.61564052927778	1.0747081036277777	4.002673901207408
O	7.022447109277779	-1.1875241653722222	0.20112880120740773
O	3.723967039277779	0.19435965462777793	1.559403351207408
O	1.3074600992777792	-0.5178970353722223	-1.2964244307925923
O	-2.2998028307222214	-1.2285787053722224	-0.4607651427925923
O	-5.003466160722221	-2.5248577853722223	1.9270472712074078
O	-8.662949810722221	-2.0957992453722225	2.868327041207408
O	-9.296109320722222	1.1942789786277779	4.547636441207408
O	-6.745858550722222	1.4369328386277778	7.324762261207408
O	-6.386353600722221	-0.608022455372222	10.504210141207407
O	-7.802969560722222	-6.460513655372223	6.533133421207408
O	-4.035241220722221	-6.285979335372223	6.990983151207408
O	-1.712303652722221	-4.070986055372223	4.9728132012074076
O	-0.389125490722221	-5.399735615372222	1.7347335612074077
O	3.113001659277779	-4.621308185372222	0.6419624212074078
O	5.240626199277779	-5.006505665372222	-2.433162548792592
