82

O	-2.467929635350878	2.1958014098736838	-4.079421430045614
O	-3.665611489350878	-1.2430729801263158	3.2756245999543854
O	-2.428447092350878	-0.790634870126316	3.6274799099543853
O	-4.363011529350878	-1.326207880126316	4.6410224099543855
O	-5.552311279350878	-1.873923140126316	4.041621419954385
O	-4.779849959350878	0.0978047948736841	4.957921439954386
O	-6.041430839350879	0.4694502958736841	4.177919739954385
O	-5.986610259350878	-0.11235247112631586	2.7953706299543852
O	-4.571715339350878	-0.40098780012631585	2.5048048899543853
O	-4.330548409350878	0.4771658948736841	-3.2829254800456145
O	-3.797127149350878	0.9424429248736841	-5.604265370045614
O	-3.003705359350878	1.0300920828736841	-2.9195470200456146
O	-6.000390239350878	0.7631297680736842	-4.850349950045614
O	-3.166864399350878	1.3620537208736843	-1.4900118400456144
O	-3.511936329350878	0.10221525687368416	0.5943186319543855
O	-3.438615859350878	0.021936245873684146	-0.8122942390456145
O	-5.522571809350878	-0.3772789201263158	0.19785561895438555
O	-4.817123489350878	-0.3659646201263158	-1.0586126700456147
O	-5.347565879350878	0.4411913568736841	-2.1934687400456148
O	-4.699648469350878	1.1896442498736841	-4.524953560045614
O	-4.478154479350878	-0.803976970126316	1.0842331299543857
O	-5.597052539350878	-3.118739600126316	4.626381869954385
O	-5.185226199350878	-2.9227135101263158	6.087708199954386
O	-6.072059569350878	-1.8196219701263159	6.675459069954385
O	-5.644677319350878	-4.188253290126316	6.755094799954385
O	-0.858665279350878	-7.245585920126316	-8.912753290045613
O	11.826341810649122	-2.983669690126316	4.195741359954385
O	9.154833310649122	-5.276452020126316	5.565117399954385
O	7.281986700649122	-4.1196364701263155	8.703424159954386
O	3.849281590649122	-11.510832900126317	9.984721789954387
O	4.455674390649122	-8.994361010126315	7.196712589954386
O	1.8766953306491219	-6.190864350126316	7.357299079954386
O	3.2778060106491216	-3.155439430126316	5.475696739954386
O	6.272477760649122	-2.0032566601263158	3.5343615599543856
O	8.569027410649122	0.9069347708736841	4.101113479954385
O	9.511109410649123	6.095295119873684	5.744273329954385
O	6.1332642306491225	4.332989429873685	5.639976249954385
O	2.411746670649122	5.166549039873684	5.656982969954385
O	0.7022733706491222	6.640981229873684	8.755168569954387
O	-2.118238814350878	4.149571039873685	8.290575929954386
O	0.3754503706491221	1.334021020873684	8.947913969954387
O	-2.437637712350878	12.925060999873683	9.179999419954386
O	-7.498166779350878	8.879020989873684	8.934397289954386
O	-6.217384879350878	9.999759709873683	4.207967809954385
O	-4.357974509350878	13.307158899873684	3.7902175799543856
O	-0.7061021593508781	13.243420099873685	4.9207840999543855
O	-0.45528497935087797	9.412803359873685	4.966566439954385
O	3.1869038806491217	9.308554169873684	5.9887605099543855
O	6.655069110649122	0.15481510287368405	-6.963401500045615
O	7.499821970649122	-2.886173740126316	-4.8485226800456145
O	6.177109920649122	-4.992498130126316	-1.9782875000456146
O	1.285538260649122	-7.474902640126316	-0.7636045690456145
O	-1.524643845350878	-9.423094600126316	-2.4173873800456147
O	-0.808861029350878	-10.376520400126317	-6.054632740045615
O	-4.384137429350878	-11.031106400126315	-7.184450660045615
O	-7.138232509350878	-8.568448690126317	-8.228147430045613
O	-9.059432139350879	-13.315100800126316	-4.189307390045615
O	-5.787213309350878	-13.463292300126316	-2.3636912000456145
O	5.872606630649122	-3.090446770126316	-10.892051610045614
O	-11.655544639350877	9.719083559873685	-7.366854810045615
O	-0.7678418093508781	2.876829089873684	-12.492674610045613
O	-1.419557689350878	-2.0240715601263157	-9.307883680045613
O	-0.19149954935087798	-2.1447286401263157	-5.732454060045614
O	-2.484801422350878	-3.825379660126316	-3.2223275100456146
O	-3.084601689350878	-4.665115570126316	0.46415210395438555
O	0.14894837064912214	-5.411751250126316	2.2310195499543855
O	2.1190267506491214	-3.139614500126316	-0.13164765044561444
O	1.036834820649122	-0.11926300112631594	1.9273579999543857
O	3.746640740649122	2.027809689873684	3.2583793499543856
O	6.164409030649122	0.8123214230736842	0.6065207009543856
O	4.269391950649122	5.863470799873684	-0.5047613810456144
O	1.6973846606491219	3.1634695098736842	-1.1441337300456143
O	-1.4433106393508779	4.636579119873684	0.5022287329543855
O	-4.891757409350878	3.757052269873684	-0.9036081650456145
O	-7.106544089350878	2.8776839598736843	-3.8362952600456146
O	-10.330692459350878	1.108241169873684	-4.630627270045615
O	-9.930038749350878	-2.635239400126316	-4.504109600045615
O	-6.769809099350878	-3.560510070126316	-6.413400800045615
O	-5.547075059350878	3.573569989873684	-10.141822710045613
O	-3.425958709350878	3.451409669873684	-7.002283560045615
O	-3.231713129350878	6.524977699873684	-4.786739180045615
O	0.07506705064912222	7.377923639873684	-3.2095688400456144
