33

O	29.068663311630914	14.741371678654987	27.836416160429685
O	30.66400918308242	15.967487443810507	28.704241753823347
O	29.30199613136242	15.910749299932165	28.35515831937038
O	28.24367030960848	16.72947956661421	28.893598218009874
O	28.386737259168726	17.724847519004285	29.85700283705912
O	27.30242783197742	18.458438891843144	30.34884631258317
O	26.13529942183811	18.536340672836346	29.593000092956952
O	25.953159372388964	17.3899812054387	28.860985619295533
O	26.988982815282103	16.641079541855973	28.37803250537657
O	24.95743540553304	19.300537891332894	29.927660248421983
O	24.867037746816926	20.72220264932684	29.816237303883103
O	24.306944599949226	21.18050057288159	28.53930894974296
O	22.8301031502685	22.158682025914302	30.307077541921984
O	24.559194444413492	22.164732776659697	31.83719434974404
O	23.967110788344353	21.252427396040982	30.79683517928936
O	23.258936218480798	20.028710434544102	31.28988141412862
O	23.158421401401863	20.220225387051638	32.764231741203304
O	22.036552800657404	19.579220439837044	33.47496400936899
O	24.478224947552338	19.780519413836195	33.128905536406506
O	24.984901012929612	18.781943198617583	32.27942049478013
O	25.891271976719967	18.006062179001088	32.663910487082376
O	24.14834959502198	18.82791689046352	31.0683779108221
O	25.204279374539983	20.61052886988164	34.04800627433393
O	25.77441921505221	19.65153163788181	35.00914105129915
O	24.902795334918604	18.84379567672467	35.67655075094695
O	25.41050498537743	18.198372034296295	36.76758094416252
O	24.71601691534043	17.48863436043559	37.723724045947876
O	25.725228222826896	16.888964213031716	38.537092258901154
O	26.63517494784873	17.952595600946303	38.55848776872713
O	26.333212908185395	18.880154713050054	37.55312073558231
O	27.22740189495833	19.63626263395072	36.84985189166729
O	26.810664229462656	20.260259010448728	35.72201122915
O	22.341015067907072	18.122608609827758	33.63868096012213
