40

O	26.932958862560508	18.38540380414961	30.688698302048937
O	27.908778492403997	19.22236054077426	30.735968963039696
O	27.944336341430933	19.883921313884734	31.9538137698676
O	28.01539720240425	18.715720053825006	32.764943248450855
O	27.348398026675287	17.838472567906823	31.954440268183767
O	27.125316015481236	19.53983788399332	34.05573779469749
O	27.74699109126651	18.694359228113225	35.208936977259484
O	26.39829076101995	18.354391662466412	34.756490588228665
O	25.49054393440354	18.214201989734814	30.53858466206781
O	24.72338279204721	18.128690595746072	31.826334135422215
O	24.191107000051733	19.437146043064825	31.69262506154248
O	23.4454962149404	19.221300665169384	30.414484116506834
O	24.543706693500422	18.59632427711332	29.660323588851316
O	22.651261430196225	20.38722404626979	30.29178312303349
O	22.289642302086424	21.114743540316177	29.388738692219672
O	22.33263820585719	21.064306184389025	31.526884451713812
O	21.338276870702046	21.932669012436026	31.98384521267912
O	21.50503656046321	23.181574627929727	31.073979464290375
O	22.973661074464612	23.287594031277216	31.308956903292156
O	23.06264174935174	24.29996426297688	32.48930901070666
O	21.838549335937348	24.03617855700775	33.37770103590696
O	21.706328641505095	22.55496913789907	33.34638217312906
O	20.662471600367738	22.97258629702132	29.924311019228874
O	19.498405093668715	22.202903127059038	30.145922184720852
O	18.264862097622935	22.430626017918136	29.6206845949396
O	18.11713862038654	23.478132003220807	28.759994113875923
O	19.2635047202776	23.83679894557536	28.125192911136295
O	20.418640820130157	23.790901777524354	28.873822124887905
O	24.68349800796978	20.69349132190109	32.10028756137842
O	24.5716189426245	21.284287931879255	33.17027534769469
O	24.938343710505563	21.698452053202793	31.037148708277865
O	24.656510981322004	21.377324892864753	29.736507830518967
O	25.161016112224193	21.58496119378636	28.543505212487307
O	26.35861246338899	20.70705496495428	28.54859817884956
O	26.87519559261085	21.583142120964283	29.57349833869166
O	26.224324371403725	21.93134260348311	30.753704565543888
O	27.464727649836348	21.030325920314986	27.69790544603077
O	28.276752531449993	19.719620463462263	27.650224048316215
O	24.431088139843787	22.32128592762645	27.7140498502708
O	23.69607383016702	23.537907545342357	28.13714807889218
