25

O	23.403079515078105	19.29332465104457	28.47701190066127
O	23.190950566857268	18.00105161215484	28.11392588803699
O	22.332035789898107	19.62736994901718	29.46401912025352
O	22.96415030973197	19.495359685515208	30.839601834531024
O	23.783242532343355	20.70538168355464	31.107530013114953
O	24.8615883826548	20.74221486297104	30.064944961269603
O	24.660726096895026	19.756804996873484	29.02476255543578
O	28.614320062784614	15.513840868781582	29.271994894368756
O	22.249087254249318	21.08784764758422	29.206205039462212
O	30.075366492742337	13.48806043294805	28.896742014488574
O	27.47449019224162	15.174912628780241	28.435195767843627
O	21.49726427556245	21.387192518400827	28.00986227967772
O	30.944055410328108	15.524516435795404	29.319825448709594
O	26.239835657719567	15.685255626495527	29.11181135724305
O	20.089742682227886	20.955011985482717	28.095797947113198
O	25.28157171816107	17.761391301124117	30.16102188643345
O	26.370974632595306	16.859094057762448	29.986853930354837
O	19.509546258740258	21.791671283225032	29.18223541352775
O	26.811416299000186	18.8442102545925	29.14829276631383
O	27.366140659763985	17.57261430372468	29.128757156870893
O	20.202535494083545	21.24920157853279	30.373136475454206
O	28.655144109830477	16.992003766598508	29.467060845908833
O	21.605089899811944	21.659978331477443	30.359662526141147
O	29.819372587131404	14.851132032723525	28.75856821583107
O	25.429979403570787	18.503925808519462	28.963779600743287
