82

O	-6.389787148574468	1.5433194900851066	5.352869750463831
O	-2.098355148574468	0.20464084108510672	5.58805351046383
O	-2.6769814985744684	0.19003718008510673	4.2988760204638305
O	-3.2663058685744684	0.0500324640851067	6.533550340463831
O	-2.8674846185744682	-1.0080490999148932	7.49846516046383
O	-2.7199674485744683	-2.169148669914893	6.4689241004638305
O	-1.4605435991744682	-2.1183671799148933	5.6870483204638305
O	-0.9844426855744682	-0.7220596399148933	5.581954090463831
O	-5.381997148574468	-1.882313399914893	4.09434867046383
O	2.952983111425532	-3.0069270199148934	1.9186121644638305
O	-3.9145539085744683	1.2757642170851067	6.97519417046383
O	5.160466971425532	-2.495978709914893	0.8086597584638306
O	2.1519836514255317	-4.019609609914893	2.6325323104638305
O	-5.361207218574468	1.2110097410851068	7.305953110463831
O	4.956437631425532	-4.4709138499148935	1.9314810864638305
O	-6.034689868574468	2.1474863200851066	6.5438633304638305
O	1.225819091425532	-3.601418459914893	3.7235366304638307
O	-5.746790778574468	1.3287463050851067	8.74391117046383
O	0.9680725214255319	-2.0519283399148933	5.707285610463831
O	1.7945014314255316	-2.6564803199148934	4.730932750463831
O	-4.994638848574468	2.4466397000851066	9.46376958046383
O	0.9425642614255318	-0.7520473099148932	3.9128800404638304
O	2.1950758914255317	-1.4407609699148933	3.8974624104638305
O	-3.5254280985744684	2.0292205600851068	9.35708742046383
O	2.9804393214255316	-1.8260049899148934	2.7351125304638306
O	-3.0466452685744683	2.018814020085107	7.931507080463831
O	-4.792006278574468	-3.0270672399148935	7.337664720463831
O	4.229308031425532	-3.4411716299148933	1.3008989224638305
O	-5.405416478574468	-4.350022849914893	6.879319970463831
O	0.41967766142553176	-0.7535335599148933	5.248636210463831
O	-4.2961898585744684	-5.110255409914894	6.47402570046383
O	-6.2144049885744685	-4.204445489914892	5.76832832046383
O	-4.116927138574468	-2.5005080899148933	6.06910111046383
O	-5.0860600885744685	-1.5918535699148935	5.437359540463831
O	-6.352247998574468	-1.6006977799148934	6.064003750463831
O	1.5340473714255318	-10.529862239914893	-4.660230879536169
O	-10.583156988574467	4.927986950085106	-3.8361690195361695
O	-15.461501888574468	-0.8538063599148933	-0.5772931395361693
O	-12.047031588574468	-0.4665198359148933	-2.1913030695361693
O	-9.473588678574469	0.7715964360851066	0.37139385046383055
O	-6.587193638574469	2.3698307800851066	-1.6050664595361694
O	-5.366112358574468	3.067290150085107	-5.11056965953617
O	-4.471284858574468	6.323940990085108	-6.813072909536169
O	-2.430177914574468	8.899998480085106	-3.759876149536169
O	-0.7645991995744682	8.250139630085107	-0.3983722095361695
O	-1.3085897675744682	10.599049260085106	2.5704908924638303
O	-1.8856945245744683	7.607003830085107	4.749844230463831
O	-5.002671678574468	6.777749330085106	2.6890986204638305
O	3.5985405114255316	14.320049960085106	5.944360430463831
O	2.4580714714255314	9.503598320085107	10.12707380046383
O	6.0459807914255315	7.980092200085107	6.93521273046383
O	8.049038081425532	10.751588160085106	5.246371830463831
O	3.4384137514255317	9.909353160085105	2.1077954744638308
O	1.6487219614255317	11.705481760085107	-0.7253917195361694
O	-0.7043417395744682	-2.106030629914893	-10.03756025953617
O	-3.680896558574468	-2.395401429914893	-7.70338627953617
O	-4.717247128574469	-5.147019159914894	-2.9218670095361694
O	-4.127449798574468	-8.522121889914894	-1.2957167795361695
O	-1.1976776895744683	-13.517056539914893	-1.0290743395361694
O	1.9590797414255317	-13.287816239914894	1.1550272884638306
O	-3.439104098574468	-15.074573139914893	4.308576810463831
O	-5.700165908574467	-12.959912239914894	2.1909485774638306
O	15.07718591142553	-1.0338608699148932	6.777320260463831
O	5.491850641425533	-7.147593239914894	-3.974537919536169
O	2.6585251314255314	-4.723461449914893	-3.530639799536169
O	0.4841805714255316	-5.257260189914893	-0.47966830953616935
O	-2.295937973574468	-3.8495823599148937	1.5988987406638306
O	-5.024557388574468	-2.263751869914893	-0.4347335095361693
O	-2.4537451525744682	-1.3283579599148934	-3.1476953995361696
O	-1.4962243754744682	1.7123656400851066	-1.0411282595361695
O	-1.7254657725744682	5.015942000085106	-2.832760749536169
O	-1.4703313716744681	3.371822810085107	-6.24563713953617
O	2.708359721425532	2.459249990085107	-2.9471061395361695
O	3.480175761425532	3.4269962800851066	0.6797141034638307
O	4.861323591425531	0.8533465310851067	3.0729947004638305
O	6.779060111425533	-2.3595625799148934	3.7437563604638306
O	6.930124261425533	-5.1345671599148925	6.32633667046383
O	4.231597841425533	-7.671546119914893	5.723737640463831
O	3.9878511014255316	-8.465576919914893	2.0159129744638307
O	10.964407911425532	-5.0463106499148935	-0.2401529295361693
O	8.229839591425533	-2.5345525599148933	-0.8680306195361696
O	8.798372211425532	1.0716309850851067	0.07217467046383064
