75

O	-1.5056299061723406	-1.3464561779148931	-6.526280803368723
O	-0.9613708088723405	-2.1002729479148936	-7.581996913368723
O	-2.7251399838723405	-0.7184054079148932	-6.981350033368724
O	-3.1518840038723406	0.37985049108510677	-6.224726103368724
O	-2.0968162158723405	1.1765967720851067	-5.779239213368723
O	-1.5565836389623404	0.23736580908510674	-4.8451233833687235
O	-0.8510494668723405	-0.7904082379148933	-5.512606143368723
O	-3.958595243872341	4.219866562085107	-6.642510103368723
O	-2.4840797518723408	-2.0297389479148933	-0.5554851633687234
O	-2.4902990798723406	-2.662715207914893	1.803686996631277
O	-1.3525600408723406	-1.2376896479148933	-0.3122720433687234
O	-4.211104253872341	-3.340371147914893	0.9025165966312767
O	-0.3899990638723405	-1.652642087914893	-1.3089716273687233
O	0.059409116127659534	-1.4233658479148932	-3.8777578033687234
O	-0.5665441178723405	-1.2785326779148933	-2.6458708083687235
O	-2.1742263338723404	-1.9952427879148933	-4.150589753368723
O	-1.9350836888723406	-1.2616649679148932	-2.9146870573687234
O	-2.83549681387234	-1.7164266279148934	-1.8601161173687233
O	-1.6554817478723405	3.031050992085107	-7.211332913368723
O	-2.9985869538723406	-2.7171817979148933	0.6017519866312768
O	-2.1369077598723405	2.124129932085107	-8.286262653368723
O	-0.8090316718723405	-2.136040187914893	-4.661912903368723
O	-3.4269055438723406	2.3004977120851064	-8.772014793368722
O	-1.3107754898723405	1.4840381340851068	-8.988909283368724
O	-2.3232058578723405	2.5726852720851068	-5.862871893368723
O	-3.7585798238723402	2.9764362020851065	-6.084507683368724
O	-4.617152253872341	2.098760252085107	-6.401909563368723
O	-3.8103628338723405	-1.6591080479148934	-8.265675793368723
O	-6.96532710387234	3.7425574620851068	6.0891776866312775
O	3.327770526127659	12.797472642085106	-4.067565363368724
O	3.554443646127659	9.287889242085107	-5.496014313368724
O	5.255446576127659	6.969623042085106	-3.0043774443687234
O	6.814777716127659	7.111303202085106	0.44075950663127683
O	10.30632819612766	6.251750012085107	1.5608078566312766
O	9.90560269612766	0.05184388808510676	-2.8761292173687236
O	7.756852476127659	-0.9255747779148933	-7.651284393368724
O	7.92083528612766	2.865147822085107	-7.0827842633687235
O	7.957729226127658	-7.507909447914894	-10.584512843368723
O	7.068282436127659	-9.066496867914893	-5.861958233368723
O	9.99297069612766	-10.657055457914893	-4.041963743368724
O	10.46610299612766	-5.062627937914893	-3.4225721333687233
O	13.10018929612766	-2.6307053379148932	-2.2741240772687235
O	2.838502776127659	5.888606282085107	7.882766756631277
O	2.2027185561276594	7.741841762085106	4.675665216631277
O	-1.7157195798723406	7.441876832085106	0.6815340566312766
O	-5.45558116387234	6.976783112085107	0.23533588663127647
O	-10.57636369387234	5.3015160320851065	2.3360110366312767
O	-11.270237093872339	1.5677389100851067	1.7594558066312764
O	-13.80543040387234	2.382463532085107	-0.9272272333687233
O	-13.37446870387234	5.560357382085106	-2.8879046233687236
O	-10.53130364387234	7.976611472085106	-2.476818684368723
O	-4.51425016387234	-14.831246757914894	3.5696904766312763
O	-2.4766257008723405	-15.022072057914894	0.3221268366312766
O	-6.995923723872341	-0.44316574791489316	9.180489456631276
O	-4.4073835138723405	-0.7918215679148932	6.255447886631277
O	-1.9539815128723406	0.9128495800851067	4.103563126631276
O	-3.0922604438723402	1.7970014720851069	0.6442423366312768
O	-2.0362603768723404	3.3453240420851067	-2.4094123173687234
O	0.36406670612765946	6.254886422085106	-2.2412059226687235
O	1.7395213161276597	4.675478032085106	0.9064882566312766
O	3.973321266127659	2.353482872085107	-1.1027962833687233
O	7.608947636127659	2.535086882085107	-0.4534414233687234
O	7.003291406127659	3.9788937320851065	2.989187456631277
O	4.792990396127659	-0.7967327079148931	2.094263986631277
O	4.753583566127659	-3.2271307479148934	-0.7286244533687234
O	1.3951788261276594	-4.884316217914893	-1.6247903603687233
O	-2.1390707938723406	-6.085663487914894	-0.7679580233687233
O	-5.64577585387234	-6.812518647914893	-2.0462568883687235
O	-7.617880033872341	-3.5875078579148933	-2.2130771998387235
O	-7.191532213872341	-1.610057847914893	0.9404422766312766
O	-8.56763486387234	-2.3725439679148934	4.507539786631277
O	-6.605070603872341	-9.204952487914893	3.294210236631277
O	-3.8722376338723405	-7.652745047914893	5.440083186631276
O	-1.1828718468723405	-5.475233327914894	3.9301845766312766
O	1.8937364461276596	-7.120307357914894	2.4033257466312765
