69

O	3.1034659700280702	-0.5460346011333335	-0.08212339120701756
O	4.0111718200280695	-0.6512519246333335	1.0259582387929824
O	0.9321271000280702	-3.4081245646333334	-0.7559618282070175
O	2.70302062002807	-1.9492418846333335	-0.4950419422070176
O	3.0838975200280703	-3.1075595346333333	0.13199725879298244
O	2.1916837800280704	-5.981307464633334	1.8893984817929825
O	1.9832414700280703	-2.3209155046333336	-1.6327681182070175
O	2.21022341002807	-4.108280154633333	0.027456114792982433
O	2.0214058400280703	-5.478795284633334	0.30158134829298244
O	1.8236400000280701	-6.669142124633334	-0.3046612972070176
O	2.48760092002807	-7.723113074633334	0.3212183060929824
O	1.9928631600280702	-7.698470914633334	1.6262874817929824
O	-2.10887475997193	1.7479864053666665	7.901299981792983
O	-2.80951877997193	4.911071915366667	9.879775231792983
O	-10.75635877997193	-10.362498394633333	-0.39090340320701755
O	-7.38630733997193	-10.174404574633332	-2.2011496482070174
O	-7.19938738997193	-6.799350474633334	-3.9999660382070172
O	-9.13137922997193	-3.5964535746333333	-4.566724178207018
O	-3.40551755997193	-3.6003186646333334	-10.708834018207018
O	-0.21331204897192974	-7.835806524633334	-10.299793518207018
O	6.523841620028071	-3.4206780146333333	-11.963937818207016
O	2.6036076400280703	-0.6156964725333335	-16.23536591820702
O	0.9274412600280701	-2.2171529446333333	-13.168002018207018
O	-6.576665779971929	6.131135715366666	-0.8250291182070175
O	-8.901686809971931	3.3655520353666666	0.3501240942929824
O	-9.08679183997193	-0.3873924026333334	0.8466906217929824
O	-9.46356954997193	-3.4672855746333333	3.0131657317929825
O	-5.75079462997193	-4.219071614633333	3.2745744117929823
O	-3.57367388997193	-4.769635404633334	6.338230101792982
O	-3.87656396997193	-1.9630062046333334	8.921598641792983
O	-0.6438393091719298	-2.621271994633333	10.818056181792983
O	2.9657088700280703	-1.6546712346333337	9.972492071792983
O	4.27165924002807	-4.664750994633334	11.879206781792982
O	2.16437962002807	-7.771962934633334	12.080139881792983
O	-1.2354632609719296	-8.134563984633333	10.547089581792983
O	-6.32616487997193	7.642302905366667	4.113833191792983
O	15.45233832002807	9.362720175366666	-3.7223557382070176
O	13.33927252002807	6.889613285366666	-1.7750978082070175
O	13.61871832002807	4.159419455366666	-4.450502988207017
O	2.2185369300280704	9.255310975366667	1.5416119317929824
O	4.22919413002807	10.241548715366667	4.573445751792983
O	2.8764273000280705	5.421290565366666	10.009167441792982
O	0.44553050002807026	6.229076785366666	7.166444561792982
O	0.3917841670280703	4.163905575366666	3.9595563617929823
O	-1.5183264589719299	1.6784568353666667	1.9115081017929825
O	-0.49829795837192975	-2.0109195846333336	2.4124074017929824
O	-1.0188790619719297	-5.538714014633333	1.2382481767929825
O	-4.57072623997193	-6.201576424633334	0.25122526309298243
O	-5.11300420997193	-2.534121514633333	-0.7882769282070177
O	-3.30425660997193	-3.3766247246333334	-4.077643048207017
O	-5.36099388997193	-2.4879437946333334	-7.193038368207018
O	-7.47348430997193	0.05335593236666658	-5.316723318207018
O	-7.87803670997193	3.772285125366667	-5.870607138207017
O	-3.6087585399719297	2.466822495366667	-8.418037588207017
O	-2.1309530199719298	0.9230859853666665	-5.283116418207017
O	0.9194213800280702	-0.9544244056333335	-6.653011058207017
O	4.046142340028069	-1.4627560416333334	-4.520817118207017
O	6.27762491002807	-0.13346023863333345	-1.7128527482070175
O	8.74569713002807	-1.5058472126333333	0.8307652477929824
O	6.88014506002807	-3.1449355846333336	3.6575100717929825
O	4.11363719002807	-0.8330574116333335	4.838324951792982
O	4.189832620028071	2.544649435366667	6.584943941792982
O	7.970553070028069	2.4956327553666666	7.036051501792983
O	9.55421142002807	4.2902982453666665	2.117544601792982
O	6.3516477600280705	5.8588747153666665	0.7419276097929824
O	3.7594512100280704	3.9871239653666666	-1.3001598182070175
O	4.25710681002807	3.6448011753666667	-5.0297603282070185
O	1.2741973500280703	3.898104265366667	-7.3317056182070175
O	0.5534781300280702	3.325927495366667	-11.003547718207017
