19

O	22.665072035471667	19.8918226064569	28.749265318250334
O	22.703226338469406	18.46636114009368	28.792948433022744
O	21.546427672335586	20.317926313914832	29.65164245675906
O	21.39239431383742	21.821784448074627	29.803987828900155
O	22.83316890616847	22.233501012720282	29.914508345719078
O	23.86711337351054	21.15090750332617	30.332180701858768
O	24.099542444975032	20.129787732887554	29.29499935181533
O	28.430265484844206	15.752996568780631	28.724289798910917
O	29.881011919916705	13.87256575541678	27.82190318888636
O	27.43369299220177	15.387454490857978	27.690290210568623
O	30.981745315903705	15.47431309065757	28.820877989180104
O	26.3854768481635	16.45827762381261	27.555945884532832
O	24.747329289731884	17.7348560944798	29.079489292131736
O	25.894773646438942	16.992706983857552	28.800108104140275
O	26.450559406113314	19.019719788189235	29.370106036998255
O	26.956821914134533	17.695695266185133	29.514155539951787
O	28.262362936287644	17.18306274767551	29.03432667210281
O	29.701302916590873	15.138027658993233	28.39891438171563
O	25.08848856068957	19.10754702113451	29.024661638437486
