88

O	4.210156655743138	-4.382986762160784	-3.1794410203313723
O	-0.21066504425686272	-2.747066692160784	4.499725529668628
O	-0.2515939942568628	-2.513522962160784	5.730719159668628
O	1.0439813374431373	-2.329659092160784	3.968172669668628
O	-1.5275352642568627	-2.396359592160784	4.1518692696686275
O	2.1962716857431372	-3.0269170021607836	3.6557366196686276
O	3.124369635743137	-2.484094512160784	2.8133160796686276
O	4.475351695743138	-2.744986322160784	2.5656281196686277
O	5.3608000557431374	-1.673947317160784	2.3000379696686277
O	4.914272825743137	-0.48833993716078383	2.8860884896686274
O	3.666836995743137	-0.3120507951607839	2.230549169668628
O	2.7281397257431372	-1.395866610160784	2.0843725396686277
O	1.7514217657431372	-0.6061275141607838	2.7781428696686277
O	0.8382424977431373	-0.9865840391607839	3.6749863796686277
O	6.160954455743137	-1.171117122160784	1.075905999668628
O	7.255175045743137	-2.0664958121607837	-0.7415271783313722
O	6.029747885743137	-1.906246862160784	-0.11585154033137224
O	7.464468045743137	-3.3768351021607836	-0.25269265233137217
O	6.209412485743137	-3.9556726921607837	0.11171118966862781
O	5.173331155743137	-2.920778542160784	-0.00836819033137215
O	5.323261325743137	-5.058993832160784	0.2025154096686277
O	4.651142995743137	-5.496468212160783	-1.0052881553313722
O	4.398812335743138	-4.466609132160784	-1.8470066883313723
O	4.432590835743137	-3.269739892160784	-1.2451597553313722
O	8.035672475743137	-4.012955342160784	-1.2492080373313723
O	7.959702835743137	-3.9234805421607835	-2.7295305803313723
O	7.165679945743137	-2.8318332621607842	-3.1429846703313724
O	7.536251715743137	-1.821813252160784	-2.113995175331372
O	5.069505095743137	-5.434601662160784	-3.6280693603313723
O	3.1569863157431373	-5.3676320721607835	-5.575885070331372
O	5.404332065743137	-5.076417552160784	-5.017451700331373
O	4.061683825743137	-7.634004812160784	-5.668686320331372
O	4.159440225743137	-4.342806562160784	-5.5265926803313725
O	2.7279560957431372	-5.947898932160784	-4.350510850331372
O	3.977916885743137	-6.503837262160784	-3.673430260331372
O	3.809693005743137	-6.389433032160784	-6.327628000331372
O	2.689198895743137	-6.8603850021607835	-7.324462230331372
O	8.461249625743138	8.801236127839216	6.524943049668628
O	5.142966885743137	8.750462797839216	4.728817249668627
O	-0.07692224425686267	12.599711417839215	2.6511652096686276
O	0.5410893167431372	10.978304817839215	-1.4627449283313723
O	1.7723069687431372	7.656720047839216	-2.8718355503313724
O	4.1596302857431375	7.638759967839216	-5.830839310331372
O	6.200773435743137	5.109245007839216	-3.939218230331372
O	6.976669975743137	7.7565948278392165	-1.2638597763313721
O	3.0702354957431375	4.6348675578392164	-12.043583000331374
O	4.764931205743137	1.2407546878392162	-12.129353100331372
O	6.997159545743137	0.30801611783921623	-9.195484720331372
O	6.641881325743137	-3.377128062160784	-9.98842765033137
O	2.899956875743137	-3.787659592160784	-10.318529740331371
O	2.2163427757431373	-0.7913522219607839	-7.995516050331372
O	-0.3536967842568628	0.28408117783921605	-10.344617910331372
O	-1.0668238642568626	4.011729487839216	-10.16821846033137
O	0.6165801037431373	4.486187957839216	-6.752383830331373
O	-0.2645720942568628	8.211951507839215	-6.531367010331373
O	1.2713997757431372	-6.299223412160783	13.976322199668626
O	4.362464095743137	-7.982840412160783	15.33335509966863
O	-6.430389134256863	-12.249473882160785	-1.1651501024313722
O	-3.5417598242568626	-11.166970182160785	-3.6076777703313723
O	-4.003843174256863	-13.365218882160784	-6.7042206003313725
O	-3.221819224256863	-11.647735182160785	-9.986495230331371
O	-2.1823264042568624	-8.447974942160783	-8.258356570331372
O	-4.979083984256863	-6.229051742160784	-7.886177610331372
O	-9.851923464256862	-3.436697342160784	6.472914109668627
O	-4.7339168242568626	-2.195871022160784	9.291611799668626
O	-2.431700414256863	0.5295552378392161	8.146363259668629
O	1.4019949257431372	-0.34064037216078386	8.007934009668627
O	4.869469585743137	0.7958235278392161	6.884839359668628
O	4.9807715657431375	4.662107007839216	7.677156089668627
O	1.2430686887431373	5.137306477839217	6.941480449668627
O	2.080635725743137	4.794280967839216	3.109825089668628
O	0.8977662182431372	7.804956427839216	1.1567864096686278
O	-1.7049991742568629	8.871989497839216	3.801760919668628
O	-5.497155594256863	9.237788937839216	3.6131843796686276
O	-4.127652024256863	6.444711437839216	-0.4964822503313723
O	-2.313349724256863	3.9635934878392165	1.7406910996686276
O	-0.36784615425686273	1.874302627839216	-0.8617243823313723
O	0.32614648074313723	-1.7525236921607839	-0.053127170331372264
O	-0.6940567242568627	-5.066029622160784	1.736364399668628
O	0.9730096073431372	-8.204146702160784	3.299549549668628
O	2.7440000857431373	-7.589381732160784	6.570246689668628
O	0.5203809287431372	-5.612606152160784	8.722191469668626
O	-2.8022144342568627	-6.550668422160784	10.247240199668628
O	-4.456770434256863	-9.921520122160784	4.028685369668628
O	-6.245167394256863	-6.593469332160784	4.033654209668628
O	-4.790573394256863	-3.2422794221607836	3.1119662996686275
O	-4.743906804256863	-2.1690087421607838	-0.4701143033313723
O	-5.250412214256863	1.434432047839216	-1.4835427123313722
