28

O	24.878485575340015	20.83119776031755	34.79895402932955
O	25.42061592542019	18.61453272006863	32.66431244949276
O	25.78658770845867	18.65584496784845	34.18441347296132
O	24.681024100764034	19.329900440218342	34.9849436331545
O	26.178607558800042	20.99043843748363	34.08245054087853
O	26.011578447630516	20.826674064047218	32.46279765207287
O	24.83789239745142	19.994486365723915	32.38043122918753
O	24.11561637453585	19.726408062827396	31.313582350930083
O	25.44574752630915	17.96444428576314	31.54606927647361
O	25.994558077973057	17.29669735563953	30.46263248709469
O	26.592571483120082	16.11087706369491	30.652754004087964
O	27.38378169681478	15.39291612838681	29.66317767219426
O	27.991910814403298	15.66929137582917	28.57984089096612
O	26.989342087962463	16.541813678140926	28.237629663989924
O	26.020894377752644	17.265514756965917	29.06892208470703
O	29.0484373117742	14.832965548802655	28.09859195504207
O	29.452953777216305	14.17145301538548	27.184698089483472
O	30.021297159652256	14.010932435891405	28.671606445519693
O	27.315097094588612	20.378988789079656	32.08282424666183
O	27.76526775528999	19.24060806353235	31.292514610383044
O	28.700617640949893	18.313250292919157	31.636101218153833
O	29.074142807058394	17.48371509901614	30.5326038673074
O	29.15562240591838	17.24179511452987	29.294915353714813
O	28.599960792724968	18.429614971067295	29.06255538773309
O	28.012216549814518	19.435707092181232	29.919104753600834
O	30.244434532008526	16.46602339774244	28.79983501466426
O	30.651090776836003	16.51239160153818	27.634161076688766
O	31.39968719673299	15.774353255778204	28.9903853643473
