25

O	26.929953909815477	18.514306412146684	29.22386742213439
O	23.48588825926444	19.87379763085086	28.835283787709386
O	22.793616565015228	19.192563337202714	27.86682658022508
O	22.48541090730721	19.996571275089437	29.949771294465044
O	22.191849361593754	21.33302777211939	30.028427406488277
O	22.976461944755695	19.564172350604583	31.302347490944697
O	24.200673319469203	20.41512705467289	31.620692220382796
O	25.230582328792366	20.03385930142578	30.552473610556152
O	24.640952640343833	19.205491614713168	29.458015329644674
O	28.857682388010105	15.213915353404346	29.05391044272966
O	19.88784262424325	21.63133618461135	29.905393633934295
O	30.50142933254464	13.598360142500105	27.996649343509887
O	27.82298527476178	14.445596145179389	28.283544780734584
O	21.17639719581589	21.589332426151525	29.147379774699004
O	31.196996282939637	15.596319020866488	29.13286239185786
O	27.04831419476808	15.491465062686052	27.544470100051164
O	21.327980308992196	22.873708538324273	28.422160486401047
O	25.21661120030989	17.10929065860444	28.231495271931074
O	26.32511850673878	16.284558171350106	28.56070654112782
O	19.936459726914094	23.435680071607564	28.413557596807436
O	27.33019029580996	17.10708863215994	29.272391482226087
O	18.999760593083966	22.408553382298173	28.977097114999125
O	28.721107354966662	16.70091284751051	28.987788742783685
O	30.172895693499356	14.819524385800593	28.566499226242072
O	25.54748214138117	18.43358621111303	28.611689805280957
