69

O	1.4208619338431032	-0.3627788123244825	0.7302152230689656
O	0.10190939284310319	-2.6462608483244825	1.3057042380689654
O	1.572628443843103	1.1738636126755173	1.3907686720689656
O	1.909523623843103	0.5915796296755175	2.9867911970689653
O	2.625656123843103	-0.48554099332448253	2.6860049470689655
O	1.8086696538431033	-1.1577755883244825	1.8185261270689654
O	1.7944420138431032	0.6786498196755175	4.3246746270689655
O	2.906499043843103	0.7649915096755174	5.201728317068966
O	4.061356493843103	0.6000828246755174	4.433257067068966
O	3.758066393843103	-0.41856273432448254	3.5083566470689656
O	0.8528355938431031	-2.1520002683244828	2.3682822170689657
O	-7.815538796156897	2.0327873516755175	3.1432872570689656
O	-11.347092086156897	1.4440632216755174	1.8763212270689658
O	3.659548583843103	14.635148161675518	3.6900784270689653
O	5.748251573843103	11.410840061675518	3.6015098570689656
O	5.274543963843103	9.838081721675518	0.13853568306896558
O	3.4351458638431027	10.241103581675517	-3.1352409529310346
O	9.603038213843103	4.8423145916755175	-4.957008642931035
O	12.396076513843102	3.6451662316755176	-0.5491705029310344
O	12.771543913843102	-4.343231418324483	-2.5195484029310347
O	13.626429313843103	-2.018068728324483	-8.455803532931034
O	11.742840213843103	0.24808489649551743	-5.979085672931035
O	-4.503103936156897	4.046139651675517	-6.873499372931034
O	-4.367187196156896	7.321284431675517	-4.960337292931035
O	-2.649270626156897	9.045782661675519	-2.0595188029310347
O	-1.6191636661568969	7.692199541675517	3.2915413870689654
O	-3.1562725961568967	5.956899331675517	6.320066057068965
O	-6.887886786156896	5.188099281675517	5.821208117068966
O	-7.264300616156897	2.5687724516755175	8.552048517068966
O	-6.3224999361568965	-1.1464661283244826	8.557413927068966
O	-5.794557796156896	-1.0565624783244825	12.310774107068966
O	-4.596442856156896	2.1205744716755177	13.919598807068965
O	-3.938564996156897	5.308227031675517	12.085766407068965
O	-9.189852976156898	3.3504331516755173	-4.806949642931035
O	3.4564551038431035	-15.306655138324482	-5.520434482931035
O	1.047160473843103	-17.456408938324483	-3.4551683429310343
O	0.43925344384310305	-14.452933438324482	-1.2141892029310344
O	4.1676214138431025	-13.666938138324483	-0.8198976629310345
O	0.17573203984310315	-7.343480758324483	-6.740179302931034
O	-6.100868206156896	-5.173479298324483	-4.634943712931035
O	-8.600466526156897	-7.320861918324483	-2.8033842929310344
O	-10.434970896156898	-3.9383743483244826	3.5259652470689655
O	-9.215646806156897	-2.1468062383244826	0.3652024260689656
O	-5.489722946156897	-1.3359313383244826	-0.11651173793103442
O	-2.7755918061568967	1.2755512416755175	-0.19526086993103442
O	-1.1200581421568967	1.9015181516755175	2.9366371770689654
O	1.8061707138431031	3.9214056216755173	4.549524297068966
O	2.1782627438431033	7.344898951675518	3.2268858970689656
O	0.7985243338431032	6.253651851675517	-0.16996946693103443
O	4.251388563843102	4.8447731416755175	-1.0403985529310344
O	5.741877323843104	6.277246411675518	-4.2605106629310345
O	2.3174244138431033	7.213212491675518	-5.624075342931034
O	0.5292969638431031	6.035066771675517	-8.733344782931034
O	4.269074853843103	2.6059617116755174	-7.926053112931035
O	3.0286108738431032	1.9827134016755175	-4.366507542931035
O	5.880515643843102	-0.07514253032448254	-2.8811992029310347
O	5.073785783843103	-2.4722492483244825	-0.014215322931034446
O	2.763133283843103	-5.0658066283244825	1.4427174280689656
O	2.1268236238431033	-6.725069868324483	4.796421167068965
O	0.39294155384310314	-4.258695308324483	7.0411348670689655
O	-2.5350166461568966	-2.6985158383244823	5.208307467068965
O	-5.834636186156898	-4.104502938324483	3.9145311870689654
O	-5.271346116156897	-7.521712598324482	5.498587527068965
O	-2.024302296156897	-9.831190638324482	1.7400816870689657
O	-2.601591026156897	-7.618388098324483	-1.3299432929310346
O	-0.5175217790568969	-4.551974098324483	-2.1457880829310345
O	2.764404283843103	-4.937562048324483	-3.963857132931034
O	3.726528893843103	-2.4055950183244823	-6.608090832931034
O	6.781069763843103	-1.6193984083244826	-8.694060392931034
