19

O	22.793733905280895	19.77439202480118	28.662794388966226
O	22.691934827987172	18.357615313561254	28.643103340156195
O	21.702189508517296	20.294331836006364	29.515234203967307
O	21.698420653184648	21.768663001893714	29.77441971256759
O	23.150536628709574	22.10260193949611	29.81042968542652
O	24.200865905157062	21.018974222108067	30.175771899382845
O	24.230852153802388	19.90531856352352	29.205798050666623
O	28.540917347862596	15.559053273554873	28.581454864114303
O	30.050993499378546	13.62451396061637	28.015122247668238
O	27.58165994806124	15.05126156714855	27.60257399011111
O	31.002816291512868	15.437150845122087	28.7828204806748
O	26.284458571290628	15.623408155958863	28.02779581138413
O	25.00043532334924	17.540691020137672	28.903522102694613
O	26.13236956723685	17.046104471479197	28.16189641004377
O	26.589652561194452	18.85957752531467	29.238657797127946
O	27.09424873690055	17.534470688716006	29.209459292619304
O	28.37384039099187	16.98779061336307	28.840531095328046
O	29.82397055848931	14.996668900689935	28.216165909849114
O	25.23685457057009	18.929195923785716	28.822548161185825
