39

O	32.107007039859496	20.146825885411697	38.15721038915723
O	32.76609541466634	19.290701483849478	37.20861103920295
O	32.061504093565624	19.247196358239183	35.855746737100446
O	31.417853094430164	20.568434086205638	35.701099861622566
O	30.34181480007326	20.946896320818283	36.63400629347433
O	30.68810845195132	20.296140157833143	37.9772868721049
O	32.301170383201665	19.47442221374912	39.442698290554546
O	33.591445025203086	18.65646233766282	39.40390741403107
O	31.248793462038908	18.545701816820173	39.74459495962165
O	31.928630077093786	21.468159256891852	34.78330911528389
O	31.23643412959694	21.62494691095595	33.56685535002515
O	30.118427993004474	20.874266366872764	33.374192207598
O	30.838093494861056	22.53493283838499	31.422103198428122
O	31.563262669973025	22.56409116010783	32.627592218319734
O	27.886697562254227	21.21121684478279	32.60209610950236
O	27.329636045818937	22.18707805468783	31.86474919698099
O	28.31895630078805	22.513918810720583	30.936357898178933
O	29.539289898927944	22.115604664602614	31.49219650893664
O	29.21848478713086	21.073528677077675	32.31559450494447
O	27.26724599471448	19.988259546627123	33.14380747129019
O	25.88370219302294	22.51296922413939	31.954441292060466
O	27.14063406661676	19.043808400556088	31.985550731202586
O	25.798748226954057	18.707936166458428	31.793046698889725
O	25.29970283356649	18.44510941241145	30.513862535261744
O	27.746869995420045	19.49348863986044	30.801646897282186
O	27.504956504589426	18.785979198624748	29.63446909125248
O	26.20610467066542	18.306519130988523	29.497069866796032
O	26.09237860474192	17.169362475590873	28.709189692088323
O	27.136640040868404	16.575784464336845	28.05280641470654
O	28.39554759972996	16.968347610143358	28.402191248356246
O	28.528071648179456	18.291804973201828	28.8314539179553
O	29.518156166683404	16.0298290787424	28.733482032881962
O	29.30066678678112	14.961972753900675	28.06979808536016
O	30.731989464773527	16.618560385530508	28.364844191708
O	31.16188321026018	23.463824393039168	30.331788345812676
O	30.411193540522444	24.44212343992937	30.06838807375252
O	32.306247397142286	23.174236876954247	29.626266497860456
O	25.308156590531222	21.751724219113733	33.15710741987858
O	25.30841532310817	21.8313365847348	30.745156946455744
