27

O	24.20201355644781	18.619142785509556	32.858872882275605
O	24.898588432837165	19.213777129752593	33.945575454526214
O	22.832187085683373	19.288825439503604	32.81567153087297
O	22.654354536256534	19.914907478123407	34.170954036534155
O	24.06767363504588	20.31056758101122	34.43845498688566
O	26.790927073133197	19.921765664674602	35.53024764425358
O	24.89953921064793	19.042860748744545	31.60383786471818
O	29.55081525118847	15.301296779041124	28.190746434340287
O	26.250843239558332	19.148380695388095	34.31884231086161
O	25.763178072135783	19.58082277996029	36.55459818358856
O	24.91538170722323	20.281715946559466	31.376274464474672
O	24.69846441596558	18.180995805493325	30.500233891279077
O	25.111800016010648	18.646081044136103	29.210513445467782
O	26.358221971893727	17.918953543525735	28.90541076239227
O	26.210002805180626	16.663554487584317	28.388723348421276
O	27.334728777316155	16.002245944377453	27.990654677238094
O	28.493753862239924	16.125897371412584	28.65204326854867
O	28.507498211557678	17.213298130695094	29.46660112284986
O	27.345653555887314	17.9073592851792	29.84790077061328
O	27.10491042694489	19.07210458460935	33.42406933616051
O	25.662786422169532	18.058759063035588	36.45037628851697
O	24.274223246166613	17.839521213652866	37.07307766267257
O	29.60338015859039	14.21723527733214	27.56396919080339
O	24.391957696040656	16.369690288918704	37.19065556311201
O	30.83579804443629	15.775007181151038	28.151592034407756
O	25.65026912504945	16.205851191667705	37.97405862759359
O	26.440271835981804	17.406219637491155	37.58756050807652
