20

O	26.55923579772737	21.298455157703433	32.63662872102685
O	31.0928647240503	15.169626589913571	28.790098065703113
O	31.290932409353363	14.013391881595123	28.29888478670164
O	29.944359878593833	15.992663848490317	28.781260829485788
O	32.35966954739798	15.666726211360382	28.809332264660384
O	30.02994447265813	17.390666964657626	28.720065454266095
O	26.948278592020294	19.748758434985483	30.32045803013396
O	28.91666226843554	18.213495977274995	28.540955378499405
O	26.09651236333856	20.86382638799802	30.450590597401703
O	27.75633198302893	17.782777048365556	29.12183784503985
O	26.5780775061353	25.328247699049918	32.37434600672677
O	26.73703505118088	18.72912207900771	29.583930091449137
O	26.16395422697387	21.772616662240466	31.526461889243116
O	25.904500059397993	23.209802642973756	31.51374785505117
O	26.846827113498367	24.01778936464426	32.14418780939489
O	25.645746091251276	25.871493650640772	31.55274966209088
O	24.551146390462883	25.095985931848166	31.188683599391
O	24.616985860485354	23.737149837231605	31.480948327643574
O	27.564853923167554	16.40101614967897	29.071564761983662
O	28.618565202707643	15.571965670997091	28.65430083620971
