80

O	5.7587532163482695	-0.6724142930615384	-0.10616433967307637
O	4.72106992634827	-0.2577944260615385	-0.9613508356730764
O	6.75427301634827	0.3783607236384615	0.1899196353269236
O	7.77393401634827	-0.6107848370615385	0.9402936833269235
O	6.9007991763482694	-0.8007805240615387	2.1957488243269236
O	5.92911402634827	-2.024013164061538	2.0848837043269235
O	5.0416569663482695	-1.3581350540615387	1.0188072193269235
O	4.657987816348269	1.9662228359384615	1.1669476633269236
O	0.3359602493482694	-4.505642064061539	2.1958342243269238
O	-0.9060928536517306	-5.658835784061539	4.024700744326924
O	0.04869692634826939	-3.619372564061538	1.0315502173269235
O	-1.925587323651731	-5.5277027040615385	2.039697834326924
O	0.5633914925482694	-2.2682689840615384	1.4321175543269236
O	2.837412496348269	-2.3659569640615383	0.4525436543269236
O	2.0338839863482696	-2.1736173740615383	1.6293471343269235
O	3.9173057063482695	-3.3981119240615385	1.9866297143269236
O	2.5874263463482694	-3.2585262440615383	2.4778450543269237
O	1.6315509323482695	-4.286518164061539	2.8504678743269234
O	7.130884156348269	0.9445918189384614	3.6539716943269234
O	-0.9303744436517306	-4.935787044061539	2.8213167943269237
O	6.25825900634827	1.0467041249384614	4.860103674326924
O	4.17624432634827	-2.5344992940615385	0.8102434773269236
O	5.867236326348269	2.3566867159384617	4.9668563143269235
O	5.27979772634827	0.08553544893846149	4.853223624326923
O	6.104986806348269	0.4611548149384615	2.5545306743269234
O	5.79582433634827	1.6696594259384614	1.8589482943269235
O	6.20457526634827	2.884577525938462	2.4328032443269234
O	8.015908066348269	1.6778135359384614	-0.1687247096730764
O	-6.38822646365173	1.3137195459384614	8.302219234326923
O	-0.7999205636517307	12.045526195938463	-4.605140205673076
O	6.57197762634827	14.436839995938461	0.5745138093269235
O	3.660591876348269	12.145864995938462	-0.3198377296730764
O	5.00461692634827	8.707213325938461	-1.2235792356730764
O	2.395158546348269	6.843983015938461	-3.2852488756730764
O	-1.0698193736517307	7.2448003559384615	-4.7043228856730765
O	-2.3220236436517308	7.072459625938461	-8.266744325673077
O	-0.03986451265173063	3.8143694359384615	-10.332816905673077
O	2.0731334463482693	0.8882173309384616	-9.166865185673077
O	5.4053756263482695	0.0013851599384614999	-10.830239005673077
O	6.98106353634827	-0.32210155906153853	-7.417746945673076
O	6.350677616348269	3.4143196859384615	-6.867739395673077
O	6.94485017634827	-6.021090124061539	-14.115466505673076
O	10.163749556348268	-6.663061924061539	-8.532397745673077
O	5.48813477634827	-8.460839104061538	-7.890027295673077
O	3.6748892863482694	-9.587865984061539	-11.031493505673076
O	2.799583446348269	-4.0334398340615385	-10.528594705673077
O	1.4411666173482693	-1.2521671940615386	-12.747605705673076
O	-8.44425997365173	5.309860655938461	-0.8506335556730764
O	-5.18338398365173	7.027344925938461	0.03605691732692362
O	-1.0960650436517305	6.027638215938461	3.7252183743269236
O	-0.6617081136517305	4.941860755938461	7.320719484326924
O	-3.883607673651731	4.585924295938462	9.300202014326924
O	-2.6716319236517307	2.343932955938462	12.126668694326924
O	-1.9870887836517306	-1.4492213240615386	12.133288094326923
O	0.6911864825482694	-1.0160768140615386	14.779019694326923
O	2.762276916348269	2.1341055359384615	14.768078094326924
O	2.248277756348269	5.011885725938461	12.423667194326924
O	-0.05587055765173066	-16.10532790406154	0.5780973073269235
O	-9.351813043651731	-2.9196016340615385	7.682746524326924
O	-6.66534908365173	-2.721751204061538	4.918814354326924
O	-4.5979815636517305	-0.4597493720615385	2.7868358443269234
O	-1.1653188736517306	0.2683890611384615	4.029559484326923
O	2.185207216348269	1.8466172359384614	3.2552308043269234
O	1.8304019263482694	5.142193385938461	1.4113188643269237
O	-1.4167913936517307	3.940911975938462	-0.16591021267307637
O	0.5137255753482695	2.0754753459384614	-2.8408503456730765
O	-0.30083077965173066	2.9212708159384615	-6.405033965673076
O	-3.7323827136517305	4.234247005938461	-5.452158485673077
O	-2.7556616036517307	-0.9243927640615386	-4.142512315673076
O	0.20475620334826938	-3.2582632040615382	-4.530214745673076
O	1.3241522913482693	-5.384996454061539	-1.5154004256730764
O	0.6410364870382694	-7.308702144061539	1.6622593643269234
O	2.1303516663482696	-8.448332304061537	4.913583164326924
O	2.1471446863482693	-5.688988904061539	7.4040868243269236
O	-1.1343881936517306	-3.8468397240615384	7.4865604543269235
O	-4.54827331365173	-4.935079624061538	8.649022074326924
O	-3.0791634736517306	-11.260748104061538	5.648262474326923
O	-5.35143558365173	-9.324482104061538	3.2924499843269235
O	-4.07059137365173	-6.647932274061539	0.9543111393269237
O	-2.8600346636517306	-7.699304984061539	-2.3942100556730765
