77

O	-5.679061654244897	-1.5247985015510201	1.1646738999387756
O	-5.459245914244898	-0.54139098655102	0.22806416593877551
O	-7.067239934244897	-1.69042777155102	1.6408173919387754
O	-6.959488294244897	-2.29869200155102	3.047651481938775
O	-5.820603944244898	-2.27235220155102	3.9695965719387756
O	-4.583564364244897	-1.57947649155102	3.4843374119387756
O	-4.573894814244897	-1.90764612155102	2.0267240819387755
O	-2.3141183462448973	-4.19475418155102	4.7895579019387755
O	1.1628136857551028	-3.74482494155102	2.9127151719387756
O	-8.128387614244897	-0.6699597195510201	1.4801285419387753
O	3.510657715755103	-4.24830156155102	3.8650976619387754
O	0.6209796957551026	-4.7110189415510195	1.9327817019387754
O	-8.463950004244897	-0.03309703855102003	0.1742447259387755
O	1.8591169257551026	-5.66761243155102	4.141714011938776
O	-0.8358492542448972	-5.055683371551019	2.0410874619387753
O	-9.611358394244897	0.9215453884489799	0.2107797349387755
O	-3.052737054244897	-3.88137361155102	1.9826016919387754
O	-1.6206699192448972	-3.87762344155102	1.6115220919387756
O	-10.878668074244898	0.48793233044897993	0.8645593759387755
O	-2.2209452912448975	-1.98053469155102	2.6923725319387755
O	-1.0348422112448974	-2.6998304215510203	2.3393604919387756
O	-10.508822374244897	-0.23255617215102004	2.1316522619387754
O	0.033420235755102556	-2.91071086155102	3.3445195319387753
O	-9.511881904244897	-1.31506733455102	1.7278571919387753
O	2.1281493857551026	-4.32837135155102	3.8033864019387753
O	-3.2634504842448973	-2.44041149155102	1.7368738219387754
O	-5.1313672042448975	-3.45794623155102	4.548945881938775
O	-3.754790144244897	-3.69064927155102	4.967349441938776
O	5.986951365755104	-8.03003991155102	-4.649795878061225
O	-1.3274711632448972	6.956777768448981	-10.443936768061224
O	-9.265291934244898	2.26131011844898	-12.439164668061224
O	-5.852443344244897	2.70973447844898	-10.746931868061223
O	-6.479850094244897	2.66760817844898	-6.974502948061224
O	-3.4804918942448975	4.27172794844898	-5.220967918061224
O	-0.11855251424489732	5.84127392844898	-5.917512398061224
O	1.2093594157551029	9.27291258844898	-5.062296998061225
O	-0.3569723842448973	10.36426949844898	-0.9951605080612246
O	-1.8866842412448972	8.41737360844898	1.8826595419387755
O	-4.939972594244898	9.697203698448979	3.8005737619387756
O	-6.4577615942448965	6.243334508448981	3.5357548619387753
O	-6.587876794244897	6.71149344844898	-0.2637580390612245
O	-5.282279144244898	11.21028559844898	10.644116631938775
O	-8.452678754244896	5.59348842844898	10.399307081938776
O	-3.586577884244897	4.546653508448981	10.987683431938777
O	-1.5453081732448972	7.33734616844898	12.589948631938777
O	-1.6142928932448972	8.42471672844898	7.056998741938775
O	-0.7685239142448974	11.32082139844898	4.736683981938776
O	7.365634185755104	1.79039740844898	-6.476040598061225
O	3.8102603557551027	1.2836942584489799	-7.689786328061225
O	-0.11865538424489741	-2.62823943155102	-6.884896758061225
O	-0.36995599424489733	-6.400805361551019	-6.7576383180612245
O	2.0835368457551025	-11.58415060155102	-5.930265298061225
O	2.238198765755103	-12.647868601551021	-2.2308908980612245
O	-2.977076992244897	-14.59090790155102	-5.516352458061225
O	-3.2598152942448975	-11.448370001551021	-7.5554424980612245
O	3.6171644657551023	-5.22473440155102	15.030444531938777
O	9.723526155755103	-8.38326934155102	-1.0516286080612245
O	6.937674795755104	-5.86027481155102	0.08944362593877553
O	4.420800895755102	-3.35120834155102	-0.9841446680612246
O	0.9778362157551026	-4.43376164155102	-1.5644356880612245
O	-2.5137174752448974	-3.3431974315510202	-2.2990559580612246
O	-2.826898823244897	-0.6876353895510201	-4.910252188061224
O	0.7247784857551025	0.6027618844489799	-3.996775028061225
O	-0.6893496542448974	2.68200317844898	-1.1801047980612247
O	-0.006829504244897144	6.35432501844898	-1.2202890380612246
O	3.0698732457551023	5.85393218844898	-3.3767550380612246
O	3.068042105755103	3.2476782384489797	1.3688211039387754
O	0.5673641857551028	2.84496994844898	4.220427791938776
O	0.04128997575510285	-0.56331814655102	5.7290087619387755
O	1.1922986857551026	-4.125813341551019	6.670792021938776
O	0.08908339575510249	-7.692684331551019	7.186468171938776
O	-0.7222866942448973	-9.39052506155102	3.9320569119387754
O	1.8907285157551028	-8.82452198155102	1.4277219119387756
O	5.398447015755103	-10.08685940155102	1.5411509719387757
O	7.114148505755104	-6.0087566315510195	6.933709551938775
O	5.3413607857551035	-3.11222783155102	5.276610891938775
O	4.619256765755102	-0.08892382855102002	7.2983992419387755
