88

O	-0.19895180191851836	2.2717889491851855	4.016805636129629
O	-2.0635999259185183	2.6842140321851855	5.103693566129629
O	-1.3663873419185184	2.8238533511851855	3.894797706129629
O	-1.9247834789185183	3.0821257011851855	2.590996696129629
O	-3.2701957919185185	3.2390391111851855	2.2765405061296295
O	-3.7147392979185185	3.464658181185185	0.9684070061296293
O	-2.8098607978185184	3.9560728511851853	0.026139962129629324
O	-1.5496987019185184	3.426418471185185	0.29046370612962935
O	-1.0666627419185184	3.2553298911851853	1.5519528461296292
O	-3.0673734419185186	4.079862381185185	-1.3980193418703708
O	-3.6509521159185185	5.223753691185186	-1.9987043638703708
O	-2.8091326967185184	5.555731311185186	-3.1295950838703703
O	-3.4966559379185185	5.1299001311851855	-4.47997616387037
O	-4.930754741918518	5.4492526211851855	-4.050850923870371
O	-4.831557091918518	4.729294351185185	-2.7047698538703706
O	-4.191500071918519	3.4137611511851853	-3.2803693738703705
O	-5.4358037519185185	2.6968563271851855	-3.664637813870371
O	-5.4259446619185185	1.3870358471851854	-4.3286131438703705
O	-5.879270501918518	2.684325178185185	-2.2630102138703707
O	-4.8488007219185185	2.3289192991851855	-1.3775787128703707
O	-5.017480101918519	1.5014915941851854	-0.4522353868703707
O	-3.6071308619185185	2.8442169911851853	-2.0381456238703706
O	-7.284464661918518	2.811222601185185	-2.0831332038703705
O	-7.586670971918519	1.4126123201851855	-1.6868011618703707
O	-7.031214261918518	0.2945025511851853	-2.2136494138703706
O	-7.819385311918518	-0.8168483688148145	-2.1907809338703705
O	-7.828227401918518	-1.9699276488148145	-2.9342913638703703
O	-8.310144841918518	-2.9789832388148145	-2.035948893870371
O	-9.276055221918519	-2.2235384888148144	-1.3636572758703707
O	-9.048177421918519	-0.8577383488148147	-1.5749233308703707
O	-9.297094871918517	0.15883971118518536	-0.6978560912703706
O	-8.777012991918518	1.3821355151851855	-0.9631654938703706
O	-5.203216991918518	1.4379345451851853	-5.833640223870371
O	-6.584224721918519	1.2648234051851854	-5.381418013870371
O	3.159163378081481	10.309442501185185	-7.035381283870371
O	4.566044188081482	6.932878301185186	-5.979247973870371
O	7.825834058081481	5.372165741185185	-4.9075970338703705
O	9.837161558081482	2.5343850371851855	-6.382374173870371
O	13.035352258081481	0.5540781811851854	-5.842286943870371
O	6.9096084580814825	-0.5195436188148146	-7.851399463870371
O	3.2097848580814814	-1.1996314888148145	-7.201096153870371
O	0.8372210480814815	-2.1283162488148144	-10.044388033870371
O	-1.6473803219185184	0.34421140118518534	-8.67851775387037
O	0.8154298880814816	3.172714311185185	-9.410409913870371
O	-2.7412114922185182	-8.158451268814815	-10.679947823870371
O	-6.331251721918518	-7.622473398814815	-9.550458583870371
O	-7.343401941918518	-4.030543188814814	-8.88574206387037
O	-10.284382191918517	-5.164403878814815	-6.7256050038703705
O	-8.62563897191852	-7.7132098988148154	-4.412317413870371
O	-5.208221601918519	-5.9541418988148145	-4.697988673870371
O	-3.5628775779185182	-9.267727028814814	-5.105588543870371
O	-0.22838215191851852	-9.155396128814814	-6.969546903870371
O	0.2184127280814816	-5.346312228814814	-6.508606513870371
O	3.621464248081482	-5.275234818814814	-8.26211553387037
O	-2.3194710499185183	10.532197221185186	10.302770556129628
O	-4.988021831918518	13.217436771185186	10.14627135612963
O	-4.692744321918518	15.916848971185185	7.532211566129629
O	-8.19760171191852	-7.202124058814814	7.72815947612963
O	-10.558494691918519	-10.210520728814815	7.738259456129629
O	-8.648541491918518	-9.421501028814815	2.5723333461296294
O	-5.145734051918518	-10.754702728814815	3.0552206961296298
O	4.032503328081481	-1.6794290588148146	11.38293725612963
O	3.847598698081482	4.816161411185186	12.670263956129629
O	3.0181582080814815	3.6903325011851855	9.118745026129629
O	3.4843876980814814	4.299504861185186	5.445593106129629
O	0.8404588780814817	6.416369791185185	3.775883666129629
O	-0.21954808191851827	7.9222556711851855	0.6226866061296292
O	2.509062778081482	8.792809581185185	-1.8021004138703707
O	4.6695515980814815	6.030995251185185	-0.2687224868703707
O	2.9527759680814816	3.4538156711851853	-2.491354003870371
O	5.222891588081481	1.4494710861851854	-4.712918623870371
O	8.246116558081482	2.1230687901851852	-2.487239353870371
O	10.444863658081482	-0.26445697881481456	-0.5499733218703706
O	6.238055918081482	-2.946598348814814	-1.7279182678703706
O	4.014356218081482	-0.2880325588148147	-0.10592261287037064
O	0.5478112180814816	-1.3188392988148148	-1.2677264478703707
O	-2.4638667369185185	-0.5606534988148146	0.9284348761296293
O	-3.9239762919185184	-0.08703898881481464	4.418736726129629
O	-6.697009161918519	1.6526535971851855	6.3344523561296295
O	-6.218211081918518	5.372831321185185	6.382138496129629
O	-2.7059266990185185	5.898241291185186	7.678784656129629
O	-1.1943666819185184	5.173907171185185	11.10030035612963
O	-4.762250681918518	-1.0872453988148147	11.01504125612963
O	-1.1654636619185184	-1.8288117488148146	10.021023056129629
O	0.23187354808148175	-1.2681093388148148	6.537862236129629
O	-0.17794478191851848	-3.9937221388148147	3.9975089361296288
O	2.5940737880814817	-4.721519338814814	1.5621032961296295
O	3.1219046680814815	-6.810086098814814	-1.5232309968703706
