73

O	1.4350169594366666	4.149872169464017	-2.9721884306449997
O	0.5310815594366668	3.708445889464017	-2.107419320645
O	0.6040276194366668	2.376211319464017	-1.491162177645
O	1.3741310994366667	1.2703674734640171	-1.8830838706450002
O	1.6655944594366665	1.748083676464017	-3.158396570645
O	1.6818379694366667	3.088054049464017	-3.695792090645
O	1.9846374794366666	5.569380559464017	-3.789047710645
O	1.5774219194366665	5.696110049464017	-5.196470710644999
O	3.4654621094366664	5.571282499464017	-3.806611110645
O	1.4592710894366667	6.976220169464017	-2.974702000645
O	1.8109217094366667	-0.015753582535983024	-1.455469946645
O	1.5788288294366666	-0.9584880405359829	-0.578457455945
O	3.0623616894366665	-0.5135667605359829	-1.823821180645
O	-0.8553600297633333	-7.595986960535984	-6.383419580645
O	-13.237106720563334	3.9741812494640167	-8.046838500645
O	-10.347407640563333	5.873515949464017	-6.3870876406449995
O	-9.890254680563334	4.481580859464017	-2.8471317406449996
O	-11.265253820563334	1.863324993464017	-0.470511946945
O	-7.102564420563334	7.204456979464017	4.506416489355
O	-4.635162300563334	10.970113879464018	1.489314179355
O	0.9125514994366667	14.881147379464018	3.6055837893550002
O	2.2234882694366664	10.596196799464018	5.849751569355
O	1.7339428394366667	10.491853609464018	9.639857549355
O	-1.8871446105633334	10.069720049464017	10.829833949355
O	-3.1656878905633334	8.898131009464018	7.396557459355
O	-6.1942161105633335	-6.963624050535983	2.9266871393550002
O	-8.660590890563332	-6.226345030535983	0.14318196935500005
O	-9.428099780563333	-3.753539420535983	-2.6138916006449997
O	-6.461452410563333	-1.394301270535983	-6.752980100645
O	-3.853336050563333	-2.220060360535983	-9.381055250645
O	-3.0227980605633333	-5.929696210535983	-9.602669900645
O	0.3471399494366668	-5.636488520535983	-11.338603350645
O	3.809482979436667	-4.851531930535983	-9.915165630645
O	4.892847279436666	-3.3660457105359827	-13.227971250645
O	2.3443423994366666	-1.647469570535983	-15.404271550645
O	-1.3102073645633332	-1.453761640535983	-14.622313950645
O	9.572059779436666	-2.216923980535983	8.951111229355
O	12.082164779436667	0.457738390464017	10.024714849355
O	14.905498779436666	-1.4085969805359833	8.218450129355
O	12.809807979436666	-1.286791260535983	5.036750759355
O	12.003831479436666	2.429132559464017	5.398537559355
O	8.023266579436667	4.791697179464017	10.172156449355
O	4.354450969436667	-2.7982336805359833	7.699810619355
O	2.6387736194366664	-5.880586790535983	6.343607579355
O	3.346090449436667	-8.155691450535983	3.436345459355
O	6.109336049436666	-10.163459720535982	1.845907259355
O	2.272830979436667	-9.785222220535982	-2.858618800645
O	1.1638531194366668	-6.289987560535983	-1.706104650645
O	-1.5056927465633332	-3.692201520535983	-1.7657580206449999
O	-1.2058535405633333	-1.084048070535983	-4.404170870645
O	-2.624801300563333	2.148112939464017	-5.8085009606449995
O	-6.3815172205633335	2.226810609464017	-5.620869700645
O	-6.369427020563333	-0.03349833853598294	-2.517680160645
O	-5.587080330563333	2.9964200894640167	-0.344454620645
O	-8.038808570563333	3.663712579464017	2.467844029355
O	-9.176644540563334	0.030369223464017048	2.518878569355
O	-8.983410170563333	-2.542740130535983	5.283618199355
O	-5.705018530563334	1.191876483464017	6.666827299355
O	-3.8880881005633334	0.868150889223017	3.314661269355
O	-1.6225939925633333	3.9342554794640168	3.377942469355
O	1.7059585594366666	3.837189389464017	1.510168759355
O	4.686466839436666	1.858881789464017	0.22315975035500002
O	7.331358989436666	2.226492049464017	-2.498223790645
O	5.963770239436666	1.169414859464017	-5.827467100645
O	3.963314899436667	-2.0864601005359833	-5.336019160645
O	5.051112489436667	-5.630541360535983	-4.577897350645
O	8.762294809436666	-4.819154290535983	-4.755700330644999
O	9.496432079436667	-2.6902146705359833	0.217975563355
O	6.476444919436666	-3.9914130205359832	2.133062449355
O	3.185202869436667	-2.096091380535983	2.341141909355
O	2.7948493194366666	0.440884981464017	5.132532429355
O	-0.5012168155633332	0.786665174864017	6.973260409355
O	-2.0561701305633333	3.328679779464017	9.339728419355
