76

O	1.6313760213719046	-0.5955906562761903	0.5557601764238091
O	-0.0855414532280953	-1.7309497262761906	1.585631588523809
O	0.8804793213719048	0.41065297922380967	-0.01507047947619089
O	1.902996401371905	-2.3611676562761903	2.1214079045238092
O	1.856526141371905	1.4860357237238095	0.22232062152380916
O	4.070270581371904	1.8930036837238096	0.9229412195238091
O	3.2114302413719047	1.3935645987238097	-0.11072662947619083
O	5.0345208013719045	0.18454588072380965	0.5341054615238091
O	3.698804661371905	0.10838688372380967	0.013748174523809165
O	2.9963841513719047	-0.6551554462761904	0.8670639525238092
O	1.1443513313719045	-1.3242108862761903	1.6229621395238092
O	4.483414911371904	0.8491236757238096	1.6251833435238092
O	3.855363901371905	-0.0889298752761904	2.6885575245238096
O	-0.055256320128095296	-8.54655994627619	-4.0044436954761915
O	-2.650610518628095	-11.35549135627619	-3.909105025476191
O	5.173263961371904	3.6391681337238095	-14.683342255476191
O	5.893839991371904	5.046183103723809	-11.19975235547619
O	2.554092031371905	5.7183741537238095	-9.461922655476192
O	-1.1722867286280954	5.42199120372381	-9.96567175547619
O	-0.4650722466280953	10.83855934372381	-3.6131711654761913
O	4.630134461371904	11.52510384372381	-2.3034728454761906
O	6.849972091371904	13.99516174372381	4.072065174523809
O	2.981314011371905	11.26119904372381	5.767949124523809
O	-0.05141091152809531	13.273640943723809	6.846377004523809
O	-2.119272818628095	14.73312914372381	3.976543334523809
O	-0.5968343546280953	12.439954043723809	1.298094682523809
O	-7.864159458628095	-1.2425940162761904	-4.903627365476191
O	-6.012892578628096	-1.3443918862761903	-8.217362755476191
O	-2.629737448628095	-0.6656518462761905	-9.78456115547619
O	2.6685539313719047	-2.06520913627619	-8.56286053547619
O	4.7368832213719045	-5.01042949627619	-7.387071355476191
O	2.7727306213719047	-8.28401806627619	-7.152708145476191
O	5.1012864213719045	-10.13979155627619	-4.783899005476191
O	5.468834631371904	-9.89121325627619	-0.9783927354761908
O	9.101875271371904	-10.918155356276191	-1.1975662054761909
O	11.076846481371904	-9.969279056276191	-4.250880105476191
O	9.685611291371904	-8.148129306276191	-7.210100995476191
O	-7.886084018628096	-6.41118424627619	-5.060393735476191
O	-5.112422408628095	0.39461019672380965	12.369809644523809
O	-3.5268696986280954	2.21175340372381	15.340361844523809
O	-2.612496608628095	-1.1369189162761903	16.96563404452381
O	-0.7906562916280953	-2.0715437762761906	13.76401524452381
O	1.0653128613719045	1.2680752777238096	13.53841094452381
O	-5.315942978628096	7.92890915372381	7.216502524523809
O	-5.946044028628096	1.0362666837238097	7.075328564523809
O	-7.360031988628096	-1.5024622762761903	4.651039654523809
O	-6.488017158628096	-5.078531376276191	3.850387214523809
O	-5.799110488628096	-8.40253178627619	5.483474924523809
O	-0.7928154286280953	-12.04855705627619	1.4560549215238092
O	-3.1968756086280954	-9.42541074627619	0.06329044052380917
O	-2.218351788628095	-5.77090921627619	-0.15174683447619086
O	-1.1953136386280954	-2.8620943062761905	-2.367832155476191
O	2.478184391371905	-2.3727286962761904	-2.854470475476191
O	5.176059671371904	-0.12396947927619034	-4.327914275476191
O	4.1284777413719045	1.3117904917238097	-7.618729955476191
O	0.43934480237190465	1.2285110657238096	-6.588269135476191
O	0.9556324213719046	4.480588963723809	-4.6692494854761915
O	-1.3536894886280955	7.31685507372381	-5.660671805476191
O	-3.945230598628095	4.91082134372381	-7.025154935476191
O	-7.527929598628096	4.3513553037238095	-5.971275155476191
O	-5.339143868628096	6.84353987372381	-2.059255465476191
O	-2.578327798628095	4.20302758372381	-1.830728065476191
O	-0.1463665946580953	5.914199373723809	0.5368221415238091
O	1.9511572713719048	3.6955146437238096	2.747077394523809
O	2.3606801613719046	0.46748141512380964	4.8186402545238085
O	5.310115831371904	-1.7271868762761904	6.119726524523809
O	6.701062411371904	-3.7994688162761907	3.280236774523809
O	3.905428481371905	-5.3917058262761905	1.329624480523809
O	1.4040956313719049	-8.06098875627619	2.287505624523809
O	3.0430077913719047	-8.80205456627619	5.659698734523809
O	0.9116780013719047	-4.7310377962761905	8.65553547452381
O	-2.0340214386280953	-3.60807390627619	6.532633864523809
O	-1.8758569286280955	-0.9184770562761904	3.873710834523809
O	-2.3966706686280954	2.6679768737238096	4.908696044523809
O	-4.409318988628096	4.99649636372381	2.725318554523809
O	-5.060354398628095	8.70651197372381	2.5450376045238094
