75

O	-0.8635821438980008	-2.5306336791599997	6.17405212946
O	-4.888903066498001	1.5956456738400004	4.54338017946
O	-3.694065766498001	-0.2597707191599996	5.89459054946
O	-2.442677396498001	-0.9358931891599997	6.15262566946
O	-1.1291038924980008	-0.3106073791599997	6.12830411946
O	-2.3048897064980007	-2.28670624916	6.35713732946
O	-1.2998816764980008	0.8585632348000003	5.2931337994600005
O	-0.23007417849800083	-1.3620922591599998	5.79174478946
O	-2.545664566498001	1.3613688558400003	4.7429602094600005
O	-5.928863826498001	1.9115738808400002	5.35759363946
O	-3.824473866498001	0.6803512518400003	4.8300811794600005
O	-4.756374616498	2.7145281508400005	3.7035203994600003
O	-4.646699456498001	-0.10498544915999963	1.8110799694600002
O	-6.031821846498001	1.9225377208400003	1.1320841694600001
O	-3.351671066498001	0.5627184958400003	1.5891319294600001
O	-6.865334316498001	0.5120741838400003	2.69331702946
O	-2.182959526498001	-0.08115155915999972	2.20865444946
O	-1.1862623044980007	-1.7916147991599995	3.83284453946
O	-2.071136586498001	-1.3016605691599996	2.8772650894600003
O	-3.037981086498001	-2.7691193991599996	4.2100213794600005
O	-3.344170166498001	-1.9531080291599996	3.08731394946
O	-4.453698726498001	-1.0620201191599996	2.86968170946
O	-5.901225946498001	0.6209512358400003	1.65572213946
O	-1.6452307974980007	-3.1031971091599995	4.09858133946
O	-0.9835316154980008	-3.67751030916	5.31259496946
O	-1.3276551824980007	10.05915193084	0.16686657646000025
O	-2.7936248064980007	12.99599513084	-1.7381644005399997
O	7.073970173501999	-3.1740691991599994	-10.093216800539999
O	8.823578523501999	-2.6492093891599997	-6.78485010054
O	9.358678133501998	-5.728689749159999	-4.57553571054
O	14.637923933501998	-1.8534562191599995	0.3901596124600002
O	11.226103833501998	-1.3554394091599997	-1.2151221825399998
O	8.508653723501999	-3.1720228491599998	0.7439161994600002
O	5.533312593501999	-3.7271459091599994	-1.5948656505399996
O	4.362749643501999	-3.10621102916	-5.1308915405399995
O	3.2250062435019986	-5.51225776916	-7.80562665054
O	0.8903537335019992	-8.76662937916	-5.77082028054
O	-0.7338515388980008	-9.20111576916	-2.40637177054
O	-0.4277005524980009	-12.42951696916	-0.3730833645399998
O	0.4186500035019992	-10.388369469159999	2.6833052894600002
O	3.6090019235019994	-9.24088326916	0.9015746594600001
O	-7.499379876498001	-10.85508536916	4.85913183946
O	-5.088513506498001	-11.16456536916	-0.4031516195399998
O	-3.4803177264980008	-12.072120069159999	-3.7364489005399997
O	0.20985399350199907	3.8444894408400003	-7.89521274054
O	3.1379920035019992	3.04487531084	-5.62999695054
O	6.142107833501999	4.07654368084	-3.58934453054
O	4.425271473501999	3.9357087608400003	-0.2725512325399998
O	4.180171603501999	6.61086873084	2.38412512946
O	2.777919363501999	9.939004290840002	1.2039173994600003
O	1.634042603501999	11.34729983084	4.56263154946
O	-1.5700308434980008	10.598075490840001	6.59181793946
O	3.9204308735019993	10.67920537084	10.084220159460001
O	5.986020813501999	9.195540770840001	7.33784800946
O	-3.862209876498001	8.63229912084	-7.4315025305399995
O	-15.877458066498	-1.5651987991599996	7.71013776946
O	-5.565421926498001	6.980784460840001	-0.26838909753999973
O	-2.990066776498001	4.31614581084	-0.7999304645399998
O	-0.8678127901980008	3.56378070084	2.21197653946
O	1.751427263501999	1.2247760748400003	3.6030542094599998
O	4.321548153501999	0.3348986368400003	1.0895544894600002
O	1.8150181735019992	0.6095385868400003	-1.76606965054
O	0.5226701635019991	-2.9040616291599997	-0.9238465155399997
O	0.5040749135019992	-5.4010275191599995	-3.62332676054
O	0.48019645350199924	-2.6869430991599996	-6.27511349054
O	-3.668842856498001	-2.6097026991599996	-2.73512597054
O	-4.630707106498001	-4.7965563191600005	0.17986152946000022
O	-6.040884676498001	-3.1909013491599993	3.37121434946
O	-7.419451766498001	-0.22769797915999956	5.27818787946
O	-7.438030086498001	1.6816594148400004	8.531013559460002
O	-4.428655026498001	3.9105744708400003	8.90455426946
O	-4.057027756498001	5.946920070840001	5.72634526946
O	-11.303591166498	4.21820091084	2.50275907946
O	-8.713874546498001	1.8150873788400004	1.1645986294600004
O	-9.691619686498	-1.7825477991599996	0.6557869694600001
