34

O	26.82887054518742	17.448258630213733	36.76089771260067
O	29.68319457405241	15.401255050469194	28.48184599233534
O	30.82874468982231	15.79636891579348	28.76549168692869
O	28.568510378994752	16.243848239827265	28.757782005170064
O	29.862597745356904	14.171536622402535	27.868647403289934
O	28.745444287475266	17.410689686837785	29.49949670996717
O	27.66999493405877	18.078211865584585	30.063315361897725
O	27.86779974683725	19.030422499599283	31.01697580001676
O	26.88050105970695	19.519285394179647	31.919210224155368
O	25.74936879032827	19.313447555207077	31.18003692371464
O	25.50126204924967	17.981521751398425	30.777096284311472
O	26.546948369777635	17.28495872015208	30.283141594575135
O	26.283744787512642	16.644868192971497	29.03932027754785
O	27.2980740075232	16.07624930938384	28.31367339369437
O	27.279506825913295	20.214412352910667	33.183988559747675
O	27.03816072195793	21.146268928630157	35.52848304495593
O	26.597307337736044	20.656220396481544	34.275466940714146
O	28.147753490310254	20.653887769480235	36.44634715692951
O	25.83668834653348	21.512825035656384	36.11856968881844
O	24.941216841619003	20.585662877346394	35.586728630819735
O	24.153047319756194	19.756108523519302	36.44277411661767
O	24.617566387055618	18.54291998363948	36.947342856017066
O	25.581052520895916	17.844509029553155	36.20004086292136
O	25.696721613653494	18.45388686151596	34.99980923143147
O	25.532145981248224	19.808135076058136	34.569142076967594
O	27.15585285108277	18.3890640276002	37.75456903041351
O	27.02912048565125	16.400680314935084	39.29240492946399
O	28.4199250252824	18.065632022792006	38.40876577163537
O	26.288665635713794	16.275184608755033	41.35738387000032
O	28.21289704711757	16.59539465134693	38.59799717966851
O	25.74735909080292	16.83620134361479	38.84131109189379
O	26.033653935640494	18.366818211183517	38.74000664120883
O	27.12153546556882	17.190780344631115	40.532333590537725
O	28.440408360587572	16.76532987909523	41.20120685116295
