28

O	25.29612925237249	19.259954936005826	35.09788423512941
O	27.266450553557295	20.15467813585014	32.83102373325868
O	27.600406765159335	20.21210748480266	34.32296190210097
O	26.40333647291943	20.23305851838627	35.195937584720866
O	25.744580743128118	18.070194394967764	34.34562485143821
O	25.634871269682172	18.263864290235247	32.82023360107537
O	26.010956460121015	19.578052320491278	32.41115848853786
O	25.89313787630288	19.617652156247765	31.07649917362182
O	28.074596729714536	20.11577293264547	31.819657208897038
O	28.0962355539321	19.102920109667757	30.600204768997337
O	29.068214525179265	18.285923419894793	31.074329193280125
O	29.400817929152	17.397872725805385	30.092142034349138
O	29.323633821095697	17.11593623316334	28.8703663436314
O	28.622657800230712	18.181114317842194	28.542907483020638
O	28.058349959985023	19.250038987915076	29.310598208492998
O	30.457722307438225	16.33497839810323	28.486786616075502
O	30.810019150037306	16.05768336178537	27.32718478303013
O	31.55676114053174	15.725477090794058	29.0227482819893
O	25.543663627093657	17.556247484849973	31.763136816205208
O	26.33718502804245	17.31028309434551	30.464791372080334
O	26.0774662684199	16.998780094675137	29.215216623727645
O	26.982605094254847	16.223001177732215	28.363257500835857
O	28.09030054198153	15.518572616396701	28.663467007385293
O	27.726740120030385	15.404725411927334	29.864113574690023
O	26.983014572093428	16.127189698609794	30.85231877051386
O	29.126407615509624	14.612884295701182	28.247456462860548
O	29.5155288359656	13.894915304678458	27.36339955339343
O	30.142373919319795	13.951336250518066	28.961729132904047
