28

O	23.667163333187084	20.117332201595072	29.130283846685273
O	23.045703512857585	19.008629257937468	28.600928270005134
O	22.83255521363538	20.662745315659425	30.2351639688654
O	21.53015421486652	20.273016841305015	30.03097702165439
O	23.238135247795906	20.2092775877546	31.610393016285705
O	24.687553854856116	20.527168743857185	31.857928619021365
O	25.439811396909075	20.88675476759763	30.605852897390594
O	25.117061491333796	19.966554031856898	29.44670507113529
O	28.84699350603129	15.467382074411324	29.073479508394765
O	22.045856036387306	22.45692930813565	28.787842235736473
O	21.26427191484193	22.693603784789378	30.07592902874401
O	31.26325668316838	15.069880159840435	28.761258368777565
O	27.59164685933931	14.801586277873215	28.64667204220741
O	19.963332872013364	23.433387428279573	29.784298382617596
O	29.979717853879126	13.70817040557211	27.720121067381196
O	26.41673609678283	15.567494784107351	28.17716804451679
O	19.120785551346636	23.078038863396785	30.997532110392356
O	25.150855337638138	17.648659718113375	28.92892498131758
O	26.292433019465093	16.99522439665361	28.40121071967449
O	19.923775128935517	22.707735002678753	32.20873235515621
O	26.764398266072217	18.40929590839107	30.130263791239415
O	27.35306851901415	17.487430069770355	29.21442071362142
O	20.81783671931523	21.48062729032829	31.998402612591676
O	28.577510416462008	16.765282424090984	29.663856080590687
O	20.739603914891283	21.29520698696637	30.47105678556963
O	29.97732362812508	15.071751182165574	28.25114258249829
O	25.35760940201427	18.54655227386818	29.951391571310783
O	27.964933717348686	14.082056450562133	27.55988922392642
