10

O	20.803137186022514	20.64037594708416	25.278674894934518
O	22.108255086126473	21.02034442681331	26.307570817347557
O	19.502780059003715	20.718067633905456	26.289853499918934
O	20.938796414757807	21.701073241213344	23.98311300343423
O	18.234349276675097	22.64391000685062	27.099259864839166
O	19.170626023247937	21.07711556687905	28.659896038941177
O	19.412121775301365	21.68522771763766	27.273051115156655
O	22.045619501803618	22.32660495613497	26.732016100270016
O	22.09621746701202	22.62073216492341	28.19388360362798
O	21.313041642985112	23.33006545723304	25.913738824881644
