81

O	1.389757672803571	3.7634308897821436	-3.118305566571429
O	0.30375361780357096	4.580069459782143	-2.757801186571429
O	2.489936152803571	4.7747331397821435	-3.235163076571429
O	2.086527102803571	5.463348269782143	-4.396804866571429
O	3.6969411228035707	4.027808169782143	-3.791053076571429
O	3.4345875328035707	3.444280599782143	-5.148097016571429
O	2.0270414528035707	3.5940766797821437	-5.627378576571429
O	1.099038032803571	3.280392289782143	-4.505209216571429
O	0.08311685980357092	-2.5242497802178567	-5.347783736571429
O	-0.19434094819642905	-4.2001851002178565	-6.966326336571429
O	0.07676076880357091	-2.625416020217857	-3.833273656571429
O	-0.31703192519642903	-4.933025280217857	-4.831777166571429
O	0.716286322803571	-1.4709928402178567	-3.2510465965714292
O	1.560242472803571	0.9562832987821434	-3.5990829465714294
O	0.6629979628035709	-0.1390561602178566	-3.720998106571429
O	1.077674232803571	1.0710246087821433	-5.610276336571429
O	0.495442180803571	-0.15398086021785673	-5.157139436571429
O	1.037168582803571	-1.4634026702178569	-5.739450006571429
O	0.18755408280357094	-3.933538340217857	-5.704064166571429
O	0.9598087728035709	1.8626683757821434	-4.424420776571429
O	2.672690522803571	6.681937409782143	-4.551595196571429
O	1.8151761328035712	7.628014159782143	-3.696247066571429
O	0.700448602803571	8.058395919782143	-4.6525059965714295
O	2.7616969028035707	8.777117069782143	-3.403054636571429
O	1.011035252803571	-3.652013750217857	-3.721548536571429
O	-9.952376557196429	-4.212775980217857	-4.353120456571429
O	-3.989936347196429	3.504256569782143	11.636773613428572
O	-4.580442847196429	6.133949609782143	8.99220181342857
O	-1.670269317196429	8.484950469782143	8.158185673428571
O	-6.399839457196429	13.640577879782144	3.7879836134285707
O	-5.683381437196429	9.926167919782143	4.184274943428571
O	-2.5134739871964293	8.975325029782143	2.281466333428571
O	-1.188171354196429	5.687266919782143	3.748698493428571
O	-1.912213677196429	3.0931699297821433	6.360286513428571
O	0.17176227680357098	1.8805792817821434	9.22805871342857
O	5.056698502803571	0.6692242737821433	11.496697613428571
O	4.446796572803571	1.8264735267821433	7.905979433428572
O	6.201091012803571	1.8391407537821434	4.533698313428571
O	9.31892485280357	3.977901309782143	3.9123834534285713
O	7.773181532803571	5.108477529782143	0.6358779734285709
O	4.9871134628035705	6.8019648097821435	2.6204633734285707
O	15.70406208280357	1.6611156877821434	2.145166253428571
O	13.52799218280357	3.9893087097821436	-3.489077456571429
O	12.01035658280357	-0.7870454402178566	-3.139381996571429
O	14.139503382803571	-2.9703441902178573	-0.851512029571429
O	13.618574882803571	-2.3919253002178564	2.901006863428571
O	10.299586382803572	-0.5226589102178567	2.4510430334285713
O	9.66428608280357	0.005891139782143284	6.148205233428571
O	-4.904037587196429	-7.054241570217857	4.657408693428571
O	-6.774010997196429	-3.8299423402178565	5.408466043428571
O	-6.899222037196429	-0.16528177021785662	4.426727603428571
O	-7.130587247196429	2.6631817297821434	-0.39459521657142904
O	-8.715083247196429	2.545466029782143	-3.850629276571429
O	-11.339095117196429	-0.21260368021785658	-4.222581326571429
O	-11.397494617196429	-0.4350457002178567	-8.01839004657143
O	-9.024882567196428	-2.2372135702178566	-10.428157026571428
O	-10.687882417196429	3.819502169782143	-12.192945086571429
O	-10.92812601719643	5.0882580497821435	-8.667807976571428
O	-9.183781807196429	-8.757070620217856	2.3493372634285707
O	8.11902771280357	-10.053466620217856	-11.042161276571429
O	-5.515690987196429	-7.049265910217858	-4.007073486571429
O	-4.389922237196429	-4.054068210217857	-1.994691785571429
O	-3.9755742671964294	-0.8087264202178568	-3.911188186571429
O	-3.0104586871964294	2.8860326397821434	-3.741221736571429
O	-3.744737137196429	4.362336449782143	-0.363756616571429
O	-3.3607677471964292	0.9729217987821434	1.3334240734285712
O	0.4320646888035709	1.4004889719821434	1.3373078934285711
O	2.0897052928035706	1.1754962557821433	4.634982873428571
O	-0.803837255196429	-0.7989509802178565	6.079676623428571
O	3.5085860328035707	-4.052238650217857	5.059629003428571
O	1.634102062803571	-2.991318650217857	1.917176193428571
O	4.5287910428035705	-2.012368910217857	-0.36372832657142906
O	4.079517022803571	-2.349849230217857	-4.1679346065714284
O	2.645707322803571	-4.158090450217857	-7.127400006571429
O	1.6908786328035712	-3.5934881902178573	-10.705103576571428
O	-1.536740567196429	-1.7205247702178565	-11.064054156571428
O	-4.058100707196429	-3.186178850217857	-8.66926350657143
O	-0.04800825919642904	-10.106801620217857	-7.032106916571429
O	0.683998732803571	-7.603581280217857	-4.280776096571429
O	4.257970022803571	-7.300461440217856	-2.9594223565714293
O	4.727868132803571	-6.703896190217857	0.7054930134285708
