21

O	23.485608029168116	20.06485940123646	29.159746815912193
O	23.232217867335702	18.803006570158942	28.680170026972178
O	22.765504518106013	21.059440763720097	28.314876418602353
O	23.366387113578618	22.43992328824889	28.708057614017697
O	23.635408623082128	22.415840532473734	30.186333472131157
O	24.87567679532538	21.601673875558205	30.417519287434075
O	24.90674702767037	20.358174867495904	29.543439453181172
O	29.04745322730765	15.853569945102697	29.113062801843082
O	31.174177644554234	14.351335444310962	28.622238006566683
O	27.94309929930961	15.40271955222399	28.245056333403735
O	31.27197049942953	15.429674881882745	29.81530912913669
O	26.624884225182726	15.984403114052661	28.61020169797447
O	25.399065843279562	17.951457031030724	29.558821015597022
O	26.556215198987694	17.417985105376893	28.890517804625503
O	27.1733402279635	19.163911587685476	29.974808369639863
O	27.60162460997628	17.783798037209966	29.924235016932208
O	28.895876043970976	17.292588758872714	29.420859548528675
O	30.17591707067109	14.951811926058095	29.13827429099506
O	25.750128612100735	19.24191361282748	29.984439926651856
O	23.965682345783826	23.84636628550065	30.59569359284869
O	20.94914789793419	21.390328456709756	28.530672376871912
