12

O	28.08401489755991	16.236439656862633	28.027980826444292
O	27.661380015556837	16.97985738249566	26.97108506511495
O	26.780697276579208	15.65604163141294	26.461691350588254
O	27.63103097843107	14.39604149163643	27.167865492882193
O	28.588382987878415	15.042166549707822	27.876666632497944
O	29.97993374051746	14.704899655238455	27.842019159211702
O	30.758310419081525	15.754764776788955	28.363619094089017
O	28.805679307438467	17.810638081422645	26.632118233737348
O	29.358532378832937	18.580000389627084	27.66118011137582
O	28.392519368223187	18.302752061370438	28.481952125594518
O	28.218565863833682	17.10145299086755	28.92979344602947
O	27.30275237846381	19.74502465552068	29.15537108172923
