86

O	1.9969378188775513	2.7004755254081627	3.136817797163266
O	5.068045208877551	0.7954688034081628	3.6028528701632663
O	-2.6553979511224486	1.7950499164081628	10.366895140163265
O	2.724709998877551	3.387746685408163	4.260899960163266
O	3.842750398877551	2.6467998554081626	3.972477380163266
O	0.14029492687755116	-0.21646838459183715	4.240954950163266
O	2.870279878877551	-1.0657775145918373	4.596864780163266
O	3.964234558877551	1.497949567608163	2.939242042163266
O	-1.649898071122449	2.101828588408163	11.378752750163265
O	2.668913128877551	0.9240427224081629	2.779950374163266
O	2.6360639988775514	0.3314975454081628	6.101658390163266
O	-3.2076398711224487	0.4876692034081628	10.129150380163267
O	1.5997700288775512	1.5368651404081628	3.6726969301632657
O	6.322763508877551	0.6696203054081629	3.9046845401632657
O	1.5150622488775511	0.4584836804081628	6.846132480163266
O	3.151082978877551	0.12532443540816285	4.929675080163266
O	-4.163213071122449	2.6291477654081628	11.027956030163265
O	6.655182918877551	0.49003855140816277	5.206947870163265
O	7.5137369388775515	0.3374078254081627	6.394094310163266
O	5.395734168877551	0.10162691540816282	5.677722770163266
O	4.545804688877551	0.06487758540816291	4.545915590163267
O	-0.14767622512244888	1.903276340408163	6.7216011501632655
O	-2.7368313311224486	2.948537685408163	6.832071010163266
O	-1.1028906211224487	1.2250520804081628	7.524914240163266
O	-2.2801878511224487	2.0836557624081626	7.861649380163266
O	-0.8260671611224488	-0.09138495459183726	7.368436420163266
O	0.21082179387755115	1.080758512408163	3.830232920163266
O	-2.1367366711224487	2.7417201854081625	9.042526340163267
O	0.4488788668775512	-0.38612203459183725	6.837135420163266
O	-3.072851131122449	4.306706705408162	7.130308220163266
O	-1.859014371122449	4.061734755408162	9.243102480163266
O	-2.317216541122449	4.878427505408163	8.185338380163266
O	1.1808691408775511	1.8287640554081628	6.799546650163266
O	7.532596228877551	-0.9953804845918373	6.926877500163266
O	6.985268868877551	0.9651208704081629	7.571578020163266
O	8.807517588877552	0.6358853474081628	6.490731950163266
O	2.1097150588775513	2.660248465408163	7.284047110163266
O	11.076986938877551	8.993707655408162	-3.2259165298367343
O	7.942892928877551	7.924986405408163	-5.085129449836734
O	6.701242028877552	6.726726915408163	-8.374531039836734
O	-0.28675130212244887	9.303287445408163	-4.574874269836734
O	0.7177031768775511	10.978789505408162	0.31849127016326584
O	-7.577643301122449	11.925601445408162	4.358737580163266
O	-4.154055581122448	11.048478865408162	5.815130150163267
O	-5.692196671122449	8.974021185408162	8.596145150163267
O	-8.090297551122449	6.787074685408163	6.642227270163266
O	-5.946824451122449	7.031505845408162	3.435620010163266
O	-9.055471491122448	7.485540195408163	1.438082878163266
O	-8.56133277112245	9.288265625408163	-1.8649566998367337
O	-4.805436191122449	8.813348865408162	-2.102433949836734
O	10.379322438877551	-8.257021984591837	2.651309893163266
O	12.743199838877551	-8.133842484591838	5.596826550163266
O	-11.01415306112245	-9.711767554591837	5.226334060163266
O	-7.345309871122449	-8.820365354591837	5.044558270163266
O	-7.843379371122449	-5.269500444591838	6.418934370163266
O	-11.081590561122448	-5.182432834591838	8.441800960163267
O	-10.036450761122449	-0.09811558459183711	6.516650690163266
O	-10.895327161122449	-0.6006832245918372	2.901857299163266
O	-1.0264994511224488	-9.250635754591837	-5.035659969836734
O	-0.3421674461224488	-12.586677654591838	-3.4467054698367336
O	6.722637978877551	-12.769913154591837	-1.262082289836734
O	4.243016228877551	-6.998496094591838	-3.365894489836734
O	4.997684868877551	-3.348541234591837	-3.664441179836734
O	6.525529238877551	-1.5504422545918373	-0.6695366298367342
O	8.17178920887755	1.5789860474081627	0.2754008101632661
O	9.362403368877551	3.809623955408163	-2.450631399836734
O	6.998250018877552	2.2129396594081627	-5.086810629836734
O	4.243790798877551	4.524304225408162	-3.4777197498367336
O	2.552492728877551	6.710763275408162	-6.133517089836735
O	3.4843550988775513	4.368321945408162	-8.973154039836734
O	1.3275764188775512	2.436486215408163	-11.375213239836734
O	-1.7355667811224489	3.7852235854081626	-7.486942379836734
O	0.6299037338775512	2.198428192408163	-4.953738599836734
O	-0.7117996811224487	3.4343607254081627	-1.591030829836734
O	-0.3855072091224489	1.0972658734081628	1.251957640163266
O	-0.2954544181224488	-2.4703102045918373	2.764792197163266
O	0.8549905018775512	-4.128736524591837	6.100522850163266
O	4.626150138877551	-4.836059934591837	5.990014140163266
O	5.7132923888775515	-5.583300254591837	2.517530875163266
O	5.188916968877551	-8.957013054591838	0.977462930163266
O	3.691598428877551	-10.634190654591837	4.063242700163266
O	-1.5408587311224489	-8.904644254591839	3.687272520163266
O	-1.7288792911224489	-7.799664614591837	0.0761352001632658
O	-1.0080558711224488	-4.415639054591837	-1.4032983598367341
O	-3.7352617211224484	-1.796292574591837	-1.384903959836734
O	-3.9994547711224486	0.6662483994081628	-4.117916019836734
