79

O	4.210514113563637	-2.4817900253272724	0.66938242386
O	4.248275733563636	-1.3280889853272724	1.89097405386
O	5.7098592535636365	-3.1323783853272724	1.03362648386
O	0.6402581245636363	1.7501045946727274	-3.9172611661400003
O	-0.13146294343636367	2.5895100646727274	-3.3720557861400002
O	1.5451481735636365	0.8774841966727276	-3.20843823614
O	0.8480617375636363	2.1782094546727273	-5.272991076139999
O	1.4637385785636363	0.42916248267272755	-1.95624017014
O	3.579500873563636	-3.7971571553272727	-1.47564192914
O	5.530121373563636	-4.615478545327273	-1.18905661114
O	2.1405708835636363	-0.7070712493272725	-1.39248255614
O	5.110132813563636	-4.370832665327272	-3.42832024614
O	3.2132867135636363	-1.3964823553272723	-1.8276746561400001
O	3.3112203435636363	-0.9717301253272724	-3.15251771614
O	2.6323283735636362	0.16764715967272756	-3.71301813614
O	3.7324221935636364	-2.4640093253272726	-0.96610219764
O	4.6954256135636365	-4.378259425327273	-2.11474889614
O	6.3211351435636365	-3.6749501853272726	-3.78960784614
O	7.207828233563636	-4.025058345327272	-2.66679211614
O	7.850537243563636	-3.2447996753272728	-1.7765475621400002
O	8.627286993563636	-3.8840004553272727	-0.81548239414
O	8.635287483563637	-5.249050795327273	-0.7197319881400001
O	8.301558873563637	-5.960011445327273	-1.83948861514
O	7.520772653563636	-5.351180165327272	-2.7846214861400003
O	2.3297741135636363	10.940712044672727	-2.49264835614
O	8.957889063563638	-0.6053663883272724	7.350258283860001
O	5.123398613563636	-0.6354278783272724	7.505074113860001
O	2.1642833435636364	1.0223346246727276	9.16390432386
O	-0.6162741064363636	-0.41373476332727244	11.27118802386
O	-3.7488182764363636	0.6158276786727276	13.17226352386
O	-1.6508004464363637	-4.421170545327272	9.54676482386
O	-1.0081058364363638	-6.136862425327273	6.218215953860001
O	0.07812831456363634	-9.805411225327273	5.984978523860001
O	2.7591227135636363	-8.754704235327273	3.4597886038599994
O	4.428756483563636	-6.788699115327272	6.23604340386
O	-3.4417327064363636	-15.009638655327272	2.86927404386
O	1.3519727745636363	-13.855828355327272	-1.35897111814
O	-2.516950506436364	-10.849011755327272	-2.49668309614
O	-5.938124376436364	-11.999452755327273	-1.32760172914
O	-6.559014376436364	-11.625347455327272	2.4251751438599998
O	-3.643845926436364	-9.169413415327272	2.9739011238599997
O	-4.329290546436364	-8.702267955327272	6.68772727386
O	-5.1526072464363635	7.416442594672727	4.401468733860001
O	5.876624313563636	5.959962014672727	3.29118652386
O	7.570877603563636	7.450823784672727	0.23248374385999993
O	7.439855123563636	10.906270044672727	-4.41114272614
O	5.9921946635636365	9.163391994672727	-7.518570986139999
O	9.429236123563637	9.025695284672727	-9.10546910614
O	12.433821933563637	8.636209114672727	-6.869332636139999
O	12.295641133563636	8.473160714672728	-3.12923377614
O	-6.232912346436364	-4.180537045327273	-12.66767837614
O	-9.280906326436362	-7.624756755327272	-7.809421396139999
O	-7.346077106436364	7.244199254672727	-5.014898126139999
O	-2.1439172564363638	11.245391044672727	-5.09843615614
O	-1.6785639664363639	7.732777404672728	-3.6473584261400003
O	-0.2805819654363637	5.651207804672728	-0.91752359344
O	3.0901508335636363	4.351368784672728	-1.44277911414
O	5.859448683563636	1.9093354446727275	-0.20169656714000006
O	6.242274473563636	2.1508709546727274	3.50729526386
O	2.5343049235636363	3.0984943346727274	3.9701179738599994
O	1.6220805235636364	-0.6237649173272725	3.68163527386
O	-0.30295948843636367	-2.0366241953272723	6.56209546386
O	-1.5815169964363638	1.4040322946727275	7.574391543860001
O	-5.143017716436364	2.7529771546727275	7.80128070386
O	-5.465827716436364	-1.5336236553272724	4.95545687386
O	-2.8870038364363637	-0.14883220032727246	2.5684350338599997
O	-2.034415026436364	-3.2722463953272727	0.47637178386
O	-0.8855753764363637	-2.8581658153272724	-3.1487043961400003
O	-0.8012655464363637	-0.9162570883272725	-6.39356432614
O	1.3884444315636362	-0.37595713232727246	-9.39309107614
O	4.224691683563637	1.9388538446727277	-8.64996749614
O	2.908829193563636	4.916818064672728	-6.76314546614
O	0.6758167885636364	7.742552704672727	-7.89505176614
O	-3.2015755064363636	2.7940398146727277	-11.34706137614
O	-4.9892973764363635	3.5779304046727276	-8.08456709614
O	-4.014552396436364	2.1240674346727273	-4.72973460614
O	-5.6085013464363636	-1.2029433853272726	-3.7530208961400002
O	-6.668991426436364	-1.8385988453272724	-0.15122939714000005
O	-7.624594776436363	-4.861102285327273	1.9318071038599998
