25

O	23.30570460592665	19.319484841869016	28.759326307162283
O	22.959819904474305	20.00083650836367	27.579330354053354
O	22.36781754046877	19.947812111281976	29.74540607133577
O	22.918378433719912	21.241874072481455	29.838291218481487
O	22.76423150116758	19.40618804501089	31.114080957169968
O	24.1704828447908	19.77042217762713	31.489171268191058
O	24.93897979266572	20.4693159752155	30.414789796151354
O	24.6826444230954	19.78663883663497	29.115907038027693
O	29.16763079462852	15.879294189240213	28.884709577067333
O	31.425156170289064	15.528054482538383	29.41915510913131
O	28.16471137652135	14.940997361456313	28.238360217831637
O	30.411235553228707	13.761958506585575	28.438707277561175
O	26.8185866136432	15.38706078263123	28.50227253128544
O	25.280999178083835	17.32664875615162	29.27614856140133
O	26.362707888479814	16.72268959225733	28.579859008408505
O	26.806683550873245	18.664550830022122	29.69237177293104
O	27.445198300352818	17.562422158121237	29.042312608801588
O	28.44742534051435	16.734863915499133	29.85337788736956
O	30.233236890751833	14.939899822402094	29.21022301020558
O	25.535881373594677	18.64586517002098	29.03544087701561
O	22.072192466624607	22.168757738394582	30.36494392405507
O	21.214761620922225	22.622066087093764	29.17274576297619
O	22.040709135323635	23.75026326072347	28.550444463320297
O	19.96161614902236	23.160731398635605	29.837401294224936
O	28.361426880665984	13.858224638944769	29.09168340100885
