78

O	-3.1801315848269227	-2.2721105592749997	-0.4350036884653845
O	-2.642736071826923	1.2182104307250001	-5.439298935465384
O	-3.260065294826923	0.06919092552500015	-3.3409736954653844
O	-3.021306854826923	-0.6011487642749999	-2.0591598554653845
O	-1.7898215008269227	-1.318759919275	-1.8398791584653844
O	-3.9061574648269226	-1.453049109275	-1.3192075383653845
O	-0.8844558088269228	-0.9964124052749999	-2.8769995854653843
O	-2.0729169338269227	-2.508700509275	-1.2357339204653845
O	-1.1753106478269228	-0.17400292627499986	-4.0485200054653845
O	-2.3414592538269225	1.607092590725	-6.671613785465384
O	-2.2833005068269228	0.6864901777250002	-4.182205495465384
O	-4.008255104826922	1.292442320725	-5.5482185154653845
O	-3.395718074826923	-1.982051689275	-4.557813235465384
O	-4.211819144826922	-0.8986211752749999	-6.782015625465385
O	-2.282428703826923	-2.829731179275	-4.451503505465384
O	-2.339173652826923	-1.1827214392749998	-6.6656185054653845
O	-1.9953788488269226	-3.986220169275	-3.5977252154653843
O	-2.868989664826923	-4.878963909275	-1.4462268354653844
O	-3.0507343748269227	-4.591082769275	-2.8226035254653845
O	-4.830902904826923	-3.456299679275	-1.6894667994653845
O	-4.088635344826923	-3.557829039275	-2.8648696254653845
O	-4.365766924826923	-2.7050628892749997	-3.9036763454653847
O	-3.404246174826923	-1.4280114392749998	-5.860591345465385
O	-3.5777034548269224	-3.8144454092749998	-1.0869943864653844
O	-3.5907350348269227	-3.462610169275	0.23960459453461547
O	-4.4211113248269225	-4.507243989275	0.3222870745346156
O	4.637492255173077	-1.943986939275	-11.284569775465386
O	10.336918985173078	1.693241980725	5.043126654534616
O	8.242391935173078	0.21417474872500014	7.886458764534615
O	10.101294285173077	-2.878876699275	9.040117594534614
O	11.234336585173077	-7.384691219275	6.761478294534615
O	9.819687985173077	-4.461328609275	4.791642524534615
O	6.003468665173077	-4.467635099275	5.0044715045346155
O	4.678982695173077	-0.9914320822749998	4.148621734534616
O	5.939106675173077	2.437232690725	3.208931574534615
O	5.475914125173078	5.788603690725	4.865735244534616
O	1.3331683751730772	5.908085790725	6.551368474534615
O	-1.8497662558269228	3.927387270725	5.927484754534616
O	-4.071824904826922	2.863362920725	8.845759094534614
O	-4.220415214826923	-0.5662621562749998	7.2986862645346156
O	-0.44701523482692274	-0.9317178982749998	7.867086164534615
O	-0.9613853568269227	-0.7506311312749998	11.660692694534614
O	-10.775276974826923	4.676995280725	9.925575594534614
O	-11.356706954826922	-1.404101689275	7.758082274534616
O	-11.298905844826923	1.570525760725	3.7233676845346153
O	-12.398647914826922	5.129068720725	4.427913424534616
O	-9.841574764826923	7.308958780725	6.284871604534615
O	-6.892778854826923	4.886410440725	5.463336804534616
O	-4.312393344826923	7.105912470725	7.225690654534616
O	-2.0720847028269227	6.734148870725	10.319616294534615
O	7.348227355173078	5.3048676907250005	-4.7206111454653845
O	8.004900715173077	2.1497483607250003	-2.7307941154653843
O	6.415753415173077	-3.198627219275	-3.1652718354653846
O	5.917614065173077	-5.882451059275	-5.773249305465384
O	6.946323785173076	-4.842580599275	-9.289906035465386
O	5.0164176051730776	-7.400671029275	-11.295071065465386
O	3.300885205173077	-12.980702169274998	-9.938603025465383
O	5.809934995173077	-11.473134669275	-7.564122985465384
O	-14.821814014826924	1.355443220725	-8.550935545465386
O	0.4776021251730773	1.1616030807250002	-10.550994015465385
O	1.2615057051730774	0.7157494237250002	-6.9781089954653845
O	1.1113201051730774	-2.565645149275	-5.495790655465385
O	1.3010328151730772	-4.572917009275	-2.3374189534653844
O	4.218607135173078	-3.551948989275	-0.09764674546538443
O	3.980210945173077	0.05371701002500016	-1.4054271862653844
O	1.085400725173077	0.7298947797250002	1.0602782945346156
O	1.3340578051730771	3.530327990725	3.309952194534616
O	3.8669146251730773	5.161279640725	1.0249270745346157
O	-0.8883901468269227	4.344800270725	-1.2238502664653845
O	-4.080992864826923	2.6761814307250003	-0.043707675465384455
O	-5.995212164826922	0.33210457072500016	-2.3334911114653845
O	-6.778650074826923	-0.7685925152749998	-5.714709455465385
O	-7.6745408548269225	-3.919379169275	-7.529521565465385
O	-4.7909950148269225	-6.161576199275	-8.176822015465383
O	-2.012029810826923	-4.100186259275	-9.424308285465383
O	-6.258750784826923	2.466776560725	-11.136101205465383
O	-4.671786634826923	2.7237705507250003	-7.720405255465384
O	-6.727533004826923	4.248701560725	-4.9438350154653845
