82

O	6.481453808562608	0.8551649857826087	-4.7614008042391305
O	6.876470688562608	1.9406449737826086	-4.06313203423913
O	5.784848978562608	2.8351715047826085	-4.05728031423913
O	4.664624308562608	2.5835222547826087	-4.78267569423913
O	3.2559114885626084	1.0678211477826087	-6.105393634239131
O	3.5525209185626085	-0.13524654521739143	-6.834309164239131
O	3.8770968085626087	-1.1928924952173914	-5.979788064239131
O	4.456444758562609	-0.7423597552173915	-4.789710334239131
O	5.228573098562609	0.3623682197826086	-4.94541677423913
O	4.2988582985626085	1.3930255240826086	-5.244487784239131
O	7.638939248562608	2.0679571547826088	-2.4775871792391304
O	0.12509215856260836	4.215073454782608	-0.9051751972391305
O	6.263806808562609	1.7254929847826086	-1.4222606872391306
O	5.172656288562608	1.0798956977826086	-2.1742854982391306
O	8.88360154856261	1.4035025287826086	-2.1853406872391306
O	7.860289008562608	3.5411719947826086	-2.2101439772391305
O	3.7816682085626088	1.4202166298826087	-2.090071830239131
O	5.5069179585626085	-0.37242514521739145	-1.7839279516391306
O	4.329331068562609	-0.8695000452173913	-1.6309377922391306
O	8.089705758562609	-3.5162480752173915	-1.7951930312391307
O	0.8810346695626085	5.216328324782609	-0.8592890042391306
O	-0.8476932514373916	4.345960374782608	0.09109258576086954
O	0.6440190765626085	3.0903945147826084	-1.6309728772391305
O	-0.2189312614373915	2.2339759977826086	-2.2204777232391306
O	0.21692289856260838	1.0085652677826087	-2.7312372782391305
O	1.5693783325626085	0.8385455737826086	-3.025736914239131
O	2.4914953385626086	1.7732973247826087	-2.5655505812391306
O	1.8884275265626085	3.021107264782609	-2.2477100822391307
O	7.763108208562608	-1.3828329352173914	-2.7868709182391305
O	8.522043328562608	-2.0851600952173914	-1.7024717962391305
O	6.635397648562608	-3.5956709452173907	-1.4374146842391307
O	5.967995868562608	-2.739974725217391	-2.4772271422391308
O	6.398395998562608	-1.3186053352173912	-2.3557046822391303
O	8.074390808562608	-1.8186459352173914	-4.1578267942391305
O	7.275741638562608	-2.2007782852173916	-5.087630894239131
O	9.01400955856261	-0.9745189952173912	-4.824261124239131
O	-3.4688799314373915	-4.687927215217391	-11.69193060423913
O	-4.880573551437392	-4.985577025217391	-8.18055915423913
O	-8.172362771437392	-4.902589375217391	-6.376980614239131
O	-9.875330381437392	-7.489345165217391	-4.192107734239131
O	-3.1827395214373917	-8.644481375217392	-0.7987031042391306
O	1.7655341675626084	-8.888569605217391	-2.8353413422391305
O	-0.7995660814373917	-9.111732505217391	-5.68748051423913
O	7.138255898562608	-11.425074805217392	4.183696085760869
O	7.784785428562608	-9.535892105217393	1.0468611357608693
O	10.501474518562608	-7.335704835217391	2.586609085760869
O	8.798698218562608	-6.327696055217391	5.8479895457608695
O	5.305219328562608	-6.552341775217391	4.2575078857608695
O	3.946336268562608	-8.254165445217392	7.267844755760869
O	0.8754378605626084	-10.463826405217391	6.663572835760869
O	0.03537355856260849	-8.898762505217393	3.2729955457608693
O	-3.095764241437392	-10.953651405217393	2.6858459257608693
O	-0.5600864014373916	12.399332794782607	-6.224531084239131
O	1.9065676315626083	13.534802194782609	-8.854049834239131
O	1.7680219045626084	11.952684994782608	-12.272145064239131
O	4.848739318562608	8.244166544782608	10.26724023576087
O	6.725089648562609	4.989865464782609	9.53072483576087
O	9.415652478562608	4.3915435947826085	12.15440103576087
O	7.833428268562608	-0.5194519152173913	10.10015643576087
O	-6.470024021437392	11.826261494782608	0.006351975760869433
O	-5.130961081437392	8.266609734782609	-0.1678055642391305
O	-5.182656591437392	4.971622924782609	-1.9767227342391305
O	-2.3947719614373915	4.4358436947826085	-4.51551507423913
O	-0.8879152014373914	2.0718837967826085	-6.90018397423913
O	-3.2314308014373916	-0.2773067652173913	-8.50737245423913
O	-5.571283681437392	0.02623124478260852	-5.47727461423913
O	-3.5957550914373915	-2.6629252652173916	-3.7195022342391306
O	-5.504389291437392	-5.6887443252173915	-2.5827040132391303
O	-8.795636681437392	-3.7718718252173913	-2.5185523962391305
O	-4.8631601014373915	-1.8214278552173913	0.6061106957608693
O	-1.2263069314373916	-2.7602598852173914	1.2346716257608696
O	1.2728336886826084	-0.017536405217391415	1.3106532557608694
O	2.5152065685626086	3.546007944782609	1.8195821657608693
O	5.1532175385626084	6.0293106247826085	0.6044818457608694
O	4.277772988562608	7.590675434782609	-2.7050768092391304
O	0.6490273245626085	8.46461207478261	-2.860469174239131
O	-1.3064649014373917	11.197465544782608	-0.9250006152391306
O	2.6549997385626085	9.547956264782608	4.816772975760869
O	-0.7145547214373915	7.891695264782609	5.222820765760869
O	-1.8015902314373917	4.644127764782609	3.6545591957608696
O	-1.0030023314373915	1.4158771927826086	5.444396345760869
O	-3.4564658414373914	-1.4617147452173913	5.3841625157608695
