71

O	5.875232583807318	-4.504285400219512	10.305305756634146
O	4.760105433807317	-3.849129850219512	9.552277526634146
O	3.6330063338073173	-3.332037050219512	10.179798706634147
O	2.8290183438073173	-2.4129446802195123	9.505339056634146
O	3.4895341638073174	-1.721585630219512	8.486608176634146
O	4.144431593807317	-2.5611069302195117	7.5858407766341465
O	4.8378044138073175	-3.610705400219512	8.185504256634147
O	2.5464042938073175	-0.43063093021951215	7.749347156634146
O	3.371343133807317	0.3680076797804879	6.5457644866341465
O	3.7567566538073174	-0.16999599021951206	5.303706256634146
O	3.9944457538073173	0.8807415727804878	4.295275706634146
O	3.534878143807317	2.203387533780488	4.186324936634146
O	3.9188280238073174	3.2929109197804878	3.3819338766341462
O	4.311414283807317	4.423419319780488	4.250128596634147
O	3.2705094238073174	5.1442189497804875	4.844382706634146
O	3.364171403807317	5.679064839780488	6.1626414266341465
O	5.280557253807317	4.169478039780488	5.036561536634146
O	2.329842973807317	0.5932929477804879	8.855242686634146
O	1.2059374088073171	-1.0196387202195123	7.495353576634146
O	4.689961983807318	0.5171466477804879	3.2925997766341464
O	2.285420283807317	2.622860869780488	1.7795045806341463
O	1.3590687398073171	2.786964579780488	0.7561961266341461
O	0.05370704480731714	2.3224209217804876	0.8657699166341462
O	-0.4122446671926828	2.019771654780488	2.142166425034146
O	0.42235048790731716	1.8775874607804879	3.1957281666341464
O	1.7692671738073171	1.827781302780488	2.7962218876341463
O	0.2992611788073172	1.4581509005804878	4.603624996634146
O	0.7383162618073171	0.2662302697804879	4.762345476634146
O	0.7971708548073171	2.3082295077804877	5.680430866634146
O	3.359997363807317	3.6496940097804877	2.061565894254146
O	6.314018343807318	12.384227899780488	-1.993079753365854
O	5.059494013807317	9.912964209780489	-4.628881403365853
O	2.9611446138073174	9.719797019780488	-7.759565643365853
O	13.788924173807317	-6.403762660219512	-3.978504043365854
O	13.175093173807316	-3.9572160002195123	-1.1436378233658537
O	12.397389973807316	-6.775231620219511	1.295480161634146
O	9.897265363807316	-8.822888000219512	-0.6849830533658539
O	8.736093203807316	-5.757817000219512	-2.676233573365854
O	8.841922023807316	-7.8052372702195125	-5.867768803365854
O	8.320694633807317	-2.4268450402195123	-7.461472333365855
O	-7.654982536192683	5.591745299780488	7.458917936634146
O	-6.679703096192683	6.737405259780488	10.947592476634146
O	-4.678653326192682	9.895768209780488	11.334573396634147
O	-5.247106536192683	-11.416402000219511	2.5745618386341462
O	-1.430062686192683	-11.519158200219511	2.484988971634146
O	-0.2087753611926828	-15.083892000219512	3.0636341066341464
O	3.6566987538073175	-12.284595100219512	0.21641900663414626
O	-12.810109826192683	2.4299446777804876	3.840774776634146
O	-11.612519726192684	2.789149519780488	0.22145600663414622
O	-7.942246366192683	2.4075424807804877	-0.6988298233658536
O	-4.770709346192683	4.135288559780488	-1.761228503365854
O	-2.3744066261926826	5.2296250797804875	1.009928366634146
O	0.9017790538073172	6.872481679780488	1.748742719634146
O	1.9103395638073173	9.413175409780488	-0.753348103365854
O	-0.12530597319268288	7.681366629780488	-3.5155274833658536
O	2.7852272538073173	5.272717219780488	-4.074262333365854
O	4.1412416738073174	5.155163379780488	-7.587716143365855
O	0.8775558898073171	6.460377199780488	-9.040629633365853
O	0.5358726237073171	1.8926420037804879	-6.153064133365854
O	3.0213997838073174	-0.22079991021951217	-4.131547773365853
O	2.0509606238073173	-1.4123505802195122	-0.656482563365854
O	-0.6527612061926827	-2.655749820219512	1.6876034196341463
O	-1.274058426192683	-2.9997986102195116	5.465135326634146
O	-2.2510697861926827	0.3630706997804878	7.005394826634146
O	-4.7673299561926825	2.1181686427804878	4.665459696634146
O	-8.354893106192684	1.2538856627804877	4.044389916634146
O	-8.262176346192684	-1.4766514002195124	6.717545616634146
O	-6.253377446192682	-5.625283980219512	3.777507146634146
O	-6.678240786192683	-4.423098630219512	0.18107565663414626
O	-4.090166516192682	-2.4244159802195124	-1.7262933233658537
O	-1.254459756192683	-4.225312940219512	-3.4481251233658536
