28

O	23.369927653685345	20.022739261698643	29.908328357817012
O	22.95724618419124	18.8656487093248	29.285666701513776
O	22.62000606008267	21.254404570086514	29.705321398574057
O	23.34735556139591	22.148838814541726	30.8095620389904
O	24.73365672960108	22.080544469111828	30.11191693959878
O	25.65307983647737	20.979025972679608	30.728181710079127
O	24.733203181371334	19.804783129409824	30.41777183307709
O	23.38653114954864	20.70312611162545	26.88233395713584
O	29.393476597350055	16.15970355907208	29.426859852795793
O	30.613301651028053	14.01975169097961	29.23052666230121
O	28.279829474640678	15.191227760375435	29.406718027616492
O	31.878513588691064	15.862222026956443	29.271809040154743
O	27.048737765083164	15.83854423504916	28.90635421932017
O	25.893667046844044	17.62540588846149	30.28459588163334
O	26.801217347933147	17.221998914749424	29.194608622555023
O	27.19460232277722	19.227181626522757	30.067409701952855
O	27.88370129987013	18.2160441138642	29.30858652847651
O	29.145668299654464	17.566462747300253	29.694092749324728
O	25.028633331586136	23.533134672331094	28.43372602243227
O	30.587601175170047	15.408423797908009	29.00260698436361
O	26.281487283441134	23.541869512460526	27.623677752053457
O	25.743422533474217	18.980895451615865	29.708085245710688
O	27.035136791254324	22.440729724111982	27.954050699416786
O	25.872064055106605	23.642510511219935	26.312619227029632
O	24.681872810071148	21.989931313957925	28.581880393858203
O	23.617055969046433	21.82205487935282	27.640160208861374
O	23.395013572505228	22.871478360430544	26.72300499019809
O	21.258968441005727	22.407744012159625	29.314782531429007
