26

O	25.84838631057286	17.79879077623016	31.669015840000082
O	29.176725861986657	13.610059531859125	28.74873298764116
O	27.917985338033915	15.269412331395115	30.07028414177835
O	26.96555297432929	16.12296830236832	30.69383531924848
O	26.10142888975358	16.912198457782022	29.679899683676776
O	27.08589224768657	17.11931604822797	31.733440486382108
O	26.158231587503316	16.11330979753212	28.502424485161086
O	25.167872848738313	17.05170588010553	30.74499707436533
O	27.268281161676448	15.257978572755134	27.97897776033983
O	30.03955124781736	13.331527021364193	29.774998238172174
O	28.109510075712237	14.525744514807826	28.86266317695651
O	30.078417219689655	12.979158967662066	27.942243588507868
O	29.354169442276273	16.78882977754851	28.8837394612926
O	30.807759954931157	15.212578533646147	27.613299951094792
O	28.799437986553535	17.582543971341238	27.864030396455288
O	31.410991496435713	15.421073605259389	29.53021497367168
O	28.044154176686465	18.83194530251592	27.93535696289683
O	26.888321342180774	20.259615202695834	29.65949852588971
O	28.16469665386234	19.777901177740013	29.058198839702648
O	27.695530355723477	19.088502843146163	31.161923328930325
O	28.681992415913243	18.929623244118076	30.173910298944474
O	29.301025278389577	17.649335555220944	29.967538698184832
O	30.432853484804745	15.85162684944599	28.772969396080466
O	26.552121361844854	18.97742301763462	30.120858807304682
O	25.474530708671377	19.11784471809276	31.12935078982295
O	25.746469140696693	20.24472413170194	31.817623918622164
