37

O	28.52843134011834	20.584598930286056	32.60560250946895
O	28.13094657908876	21.325146803500957	31.473913236551113
O	25.281915039378564	19.563652385636452	32.108302310198496
O	26.725765484815113	21.032960244517305	31.286740202350007
O	26.07014585296718	21.944453720607306	30.73890083777844
O	25.3248079253259	18.665993878468388	33.252183655943576
O	25.532420238548312	18.871967582529695	30.98282242732323
O	26.682713655293817	18.050485880161055	30.676736609939287
O	29.44141001894807	14.69228085346509	27.7453451892023
O	30.83707828525837	16.153144772461353	28.508588817753513
O	28.002129572196555	18.19140574126483	30.63007558217611
O	26.295823673505158	17.40642568510738	29.46147315950119
O	28.7832984468756	17.813534515910078	29.52066953401521
O	27.11694859891288	16.652694439224327	28.621034783963875
O	28.452240294109494	16.67259664523168	28.846408110024008
O	26.51293732786039	20.830483318373133	35.69005837750993
O	25.959529218037282	20.728785383041732	32.47767015308398
O	26.30386182724194	17.955108061207696	33.242812336727546
O	26.985130934219008	22.830402312327063	33.33045147588043
O	27.41186641491204	20.53375693467283	34.78216643017664
O	29.105438226251646	22.25424838556713	34.24084649044448
O	28.267655453899565	19.46926652129366	35.004859898513025
O	28.17963982111731	18.82131418677968	36.27093891654524
O	26.558426387282317	17.63075151317765	37.41237439762439
O	25.230514439002274	17.473477941093225	37.69683658695041
O	24.47360346895472	18.607826894449968	37.739952823890704
O	24.974978180304564	19.68668898274379	37.10574322336107
O	26.075969780650883	19.675387600778507	36.382139302546584
O	26.822381492006247	18.525690867880925	36.420221195199375
O	24.30342105235227	19.373512602443903	33.82503387881113
O	23.3839567910761	18.655086878994986	34.58406387152149
O	22.159221115826877	19.45500569950973	34.76611955931708
O	22.296777695123662	20.72152624775653	35.60358364393124
O	23.35336602678816	21.41129617675754	34.82899896033369
O	23.932914509758536	20.78965417989659	33.685828182478204
O	29.482472992665073	15.802938066114127	28.360818081632058
O	27.86364026188659	21.75781085341448	33.705698247631304
