19

O	22.91185383512273	20.099830444637995	28.6936476752359
O	22.78542924289198	18.68682131495598	28.688444234553465
O	21.770163561846662	20.70347853247498	29.401416863793667
O	21.832203489717813	22.14131101801703	29.784055878425967
O	23.283126452100813	22.39807760071625	30.051459486113384
O	24.25369618921221	21.24071712523021	30.380374744407945
O	24.31666361247286	20.228563973179533	29.289002822487674
O	28.583432349943813	15.833712658898037	28.482413726053554
O	31.066896008041205	15.539836745839375	28.688566464383083
O	27.489402812900735	15.241428236485502	27.78553024243785
O	29.99827236772769	13.826850377276166	27.935310858545055
O	26.48967713331958	16.35750287523637	27.4501312764708
O	24.951198774942227	17.807459757513588	28.9797943453441
O	26.03454635096467	17.003302244455206	28.664920254662317
O	26.64464955045092	19.087727984635265	29.23222259514635
O	27.131082835878274	17.75141750358366	29.232886161478433
O	28.39490746198767	17.221308726812	28.829877939304687
O	29.768766659222212	15.063973376970553	28.56450521377758
O	25.258698037489296	19.186247049544328	28.942398416850857
