83

O	2.405186749217857	-6.264853090928571	-0.7634521709107149
O	2.645596789217857	-4.967007110928571	-1.309099764910715
O	3.276814009217857	-5.287702150928571	-2.6223105009107153
O	3.147289309217857	-6.762143900928571	-2.864701620910715
O	3.235411629217857	-7.253593070928571	-1.455749396910715
O	3.615453259217857	-4.3484899209285715	-0.341217426910715
O	1.445778469217857	-6.4499606309285715	0.25002108308928506
O	1.449032999217857	-7.877112280928571	0.7371079790892849
O	0.06229408921785701	-8.230023490928572	0.883671989089285
O	-0.540851330782143	-8.061148060928572	-0.38309395691071496
O	0.260953926217857	-8.825880090928571	-1.399405737910715
O	-0.594730980782143	-8.686295650928571	-2.623665280910715
O	-2.018248200782143	-8.62051505092857	-2.082413450910715
O	-1.917101870782143	-8.602640160928571	-0.583373717810715
O	4.474988689217857	-5.0437014209285715	0.264267956089285
O	3.593540839217857	-2.937172900928571	-0.34471699291071495
O	4.522286619217857	-2.285383480928571	0.5318046990892851
O	3.754351639217857	-1.7308577009285715	1.6495697990892852
O	3.303897039217857	-2.482529490928571	2.681859339089285
O	2.752172489217857	-1.7978382909285715	3.774332599089285
O	2.181332939217857	-0.5724782190285713	3.6867204190892853
O	2.537270749217857	0.05882201607142867	2.5622011790892847
O	2.990323979217857	-0.6219365554285713	1.4691162290892852
O	1.644355979217857	0.28670099507142865	4.683891729089285
O	1.243617509217857	-5.5862777809285715	1.156263289089285
O	1.1389890492178572	1.4347903290714288	4.6262058790892855
O	1.5263456792178571	-0.10924500992857133	5.984881449089285
O	12.784006689217856	0.9083878590714286	-4.418588080910715
O	9.473512499217856	2.7626221990714286	-4.884072430910715
O	8.007501659217857	6.2139244390714286	-5.162809300910714
O	5.986246349217857	7.80891149907143	-7.937589450910715
O	4.273179819217857	11.072348619071429	-8.847005970910716
O	3.218890779217857	4.668619819071429	-9.563232330910715
O	1.973407529217857	1.3017146090714289	-8.321199630910716
O	3.381017139217857	-3.7908454009285713	-8.015633070910715
O	6.548042539217857	-1.6912762809285713	-8.352283930910716
O	-4.182949740782143	-5.2452355209285715	-12.254651610910715
O	-4.364400400782143	-8.427213750928571	-10.179416960910716
O	-1.255722220782143	-9.281237130928572	-8.083209400910714
O	-3.273611520782143	-11.539069780928571	-5.793986480910715
O	-6.172126550782143	-9.28821475092857	-4.863936980910715
O	-4.101721410782143	-6.111175940928571	-5.4354985209107145
O	-6.987962810782143	-4.559091480928571	-7.310626120910714
O	-5.999882250782143	-1.8168718009285714	-9.790432880910716
O	-2.500781030782143	-1.2954427589285713	-8.295324910910715
O	-1.530077100782143	1.503169629071429	-10.686140210910716
O	7.2195229792178575	0.20398111207142866	12.804912289089284
O	9.528862499217857	-2.4913029609285715	14.131363689089284
O	12.917058489217856	-2.9502798509285713	12.554045089089284
O	-13.524332710782144	-2.859746020928571	5.360492789089285
O	-9.908672970782144	-3.3690204409285713	9.233639359089285
O	-9.430203720782144	-5.674360760928571	6.205039249089285
O	-12.542531110782145	-7.863927200928571	5.822408199089285
O	-10.067005800782145	-7.362187410928571	0.8705555190892851
O	-11.089098410782144	-3.826074880928571	0.047718486089285084
O	-7.645096370782143	3.353837729071429	3.6829502090892854
O	-4.019068610782143	6.892176499071429	8.405128989089285
O	1.726270909217857	6.898596929071429	11.702725889089285
O	1.649313109217857	5.199858869071429	8.281956399089283
O	3.393838569217857	4.667198539071429	5.0118661190892855
O	5.645133289217857	1.646262759071429	4.774846969089285
O	7.830119549217858	-0.41896420892857134	2.5129020090892853
O	9.743531049217856	1.7916317090714289	0.04220177008928505
O	6.803897789217857	4.232056039071429	0.10395682108928506
O	4.924615589217857	2.1623633490714287	-2.4120013709107146
O	3.958289969217857	3.835167299071429	-5.666488590910714
O	4.2408456492178574	7.316447849071428	-4.118442030910715
O	1.626179029217857	9.993183919071429	-3.627468090910715
O	-1.020324912782143	5.697658539071429	-4.577298310910715
O	0.7606109862178569	3.9210449790714286	-1.727151420910715
O	-0.235249325982143	0.2666535990714287	-2.269005300910715
O	-0.367746774782143	-2.0547358709285715	0.752335869089285
O	-1.158008114782143	-2.4927909209285715	4.455841039089285
O	-0.387042708782143	-4.947488700928571	7.2279779390892855
O	3.082138749217857	-4.433050350928571	8.541036069089284
O	3.555654619217857	-0.7101222159285713	9.039803459089285
O	2.014043119217857	1.6136582790714287	11.586592589089284
O	-4.2121019207821435	-1.7461259109285714	10.326653989089284
O	-4.272196460782143	1.5114973790714288	8.347656069089284
O	-2.500271790782143	1.9497081390714288	5.007802089089285
O	-4.3503981507821425	0.9342488390714286	1.874354599089285
O	-4.082109560782143	3.0605392590714287	-1.241090149910715
O	-5.085036480782143	2.8583820190714286	-4.874180010910715
