19

O	27.50770824024449	20.075504817072655	36.57532649165506
O	26.28455414238949	20.408987085772797	36.04043145385188
O	25.657815170573237	19.176149875046193	35.47956779654717
O	25.952186693188356	18.13220577804774	36.33549905751735
O	25.10987330723038	18.330404370373145	37.40855931884359
O	25.075639517493446	19.716275159016142	37.82775248833335
O	24.978148171173036	20.02824154037967	39.15109841201181
O	25.729275722087515	21.22756048551983	39.17474813574768
O	27.03289232372138	20.707520164489324	39.6905151843345
O	26.612922033001674	20.183256048205575	40.93364008732463
O	27.74639504648284	19.569707658856824	41.37223266141068
O	28.32185506187998	18.508298128521375	40.54943772903057
O	27.73297420461262	18.62282995520774	39.285667882469724
O	27.755403465883937	17.312869260137752	38.858231331090266
O	26.766878230310553	16.557902275722324	39.661423614951396
O	26.518054955229836	17.213944128029688	40.82721232270131
O	26.819771043346954	16.49584336340033	41.94451433557092
O	26.341344393483865	17.07455491930332	43.23753363830229
O	25.49819140504706	18.117882562964382	42.91299045533626
