16

O	29.82705260832155	14.999887464672558	28.573019079559614
O	29.78059900890525	13.723512400311751	28.32187742200266
O	23.296565448575357	19.69884348966724	28.257842102293335
O	28.660781460837313	15.853940304292006	28.541173041779615
O	24.62495062761742	19.23369131860493	28.25460783608401
O	22.007577952159547	21.86277533208715	26.055588831302458
O	27.72043513965083	15.47261837541631	27.676169531628286
O	31.12857460799947	15.395058698927658	28.91289955478195
O	20.641936040453217	20.504386473899995	27.171764833053125
O	26.546221065351464	16.178237956679993	27.362732359716947
O	26.189852590675677	17.31007141038429	28.045074334369392
O	24.91609607049762	17.9755921260318	28.1025011097521
O	22.849955145483428	20.992007008230665	28.00180827071455
O	21.91632037887287	20.92717890800942	26.87381945849702
O	27.121582104965444	17.627372786496917	28.935437034257532
O	28.388923710750923	17.059014906549635	29.106919745440262
