76

O	-6.663313049736841	-0.6192058137017538	-1.0753809033684216
O	-7.634485359736841	0.2731562502982462	-1.3164136333684215
O	-7.012260619736841	-1.894619673701754	-1.8361776733684216
O	-8.508679299736842	-1.940105733701754	-1.9186331433684216
O	-8.93615563973684	-2.022443733701754	-0.5242294983684216
O	-7.977747959736842	-1.6142354737017537	0.5004350006315784
O	-6.858869189736842	-0.6618297437017537	0.5407932516315784
O	-1.9864316322368414	0.9591777181982462	2.4817270366315785
O	-1.3792652417368414	1.5054822582982461	4.8346332366315785
O	-1.5441500807368413	0.6390141652982462	1.1253535966315784
O	0.1739806802631585	1.9771515762982461	3.3207025866315782
O	-2.4533409727368416	-0.3926599537017539	0.5374287836315784
O	-4.7002096097368415	-1.0461640137017538	-0.1750632493684216
O	-3.9003794897368413	-0.12567409370175375	0.4570810716315784
O	-5.2489704497368415	-0.8966112437017537	1.9848941166315783
O	-4.377268179736841	0.22843150329824624	1.8056871866315785
O	-3.274312379736841	0.3600632442982462	2.7771250266315786
O	-1.1931280707368415	1.667426095298246	3.4530720666315786
O	-5.640751599736841	-1.4739473437017536	0.7703789756315784
O	4.690515070263158	-4.706506083701754	6.930397166631578
O	8.129858390263157	-4.575385153701754	8.560107476631577
O	-2.6049826597368417	-12.136046373701754	-6.511381723368421
O	-4.627255349736842	-8.935284853701754	-6.006606513368421
O	-2.4566651917368416	-5.898067803701753	-6.768520853368422
O	1.0562720202631586	-5.0650392237017545	-7.874078113368421
O	2.2380546202631586	-3.1357846537017537	-10.882187283368422
O	5.451149890263158	-2.010657173701754	-12.559607283368422
O	-3.2848322897368414	1.9545500062982462	-9.410738703368423
O	-8.29647630973684	1.4703940442982462	-7.819912763368421
O	-6.9708731797368415	-1.975778243701754	-8.891994193368422
O	-8.347227879736842	9.135732686298246	-4.642346343368422
O	-6.766153009736842	11.790739826298246	-6.834883153368422
O	-5.032989659736842	10.447990766298245	-9.968221403368423
O	-4.847623369736842	6.8288576162982455	-8.688878603368423
O	-3.0210169967368414	5.488608536298246	-11.710496983368422
O	8.713252390263158	-0.3281608937017537	-2.0252927733684216
O	7.841370250263157	-3.9287948137017534	-2.8277830133684216
O	4.941987560263158	-6.342268143701753	-3.0717523533684217
O	0.5483314002631587	-7.617578093701754	0.2728097486315784
O	-0.3612619997368416	-8.235351233701754	3.9067158566315783
O	2.7343939102631585	-8.387885713701754	6.185362926631578
O	0.9726720502631587	-7.753861853701753	9.491944946631577
O	-0.2629176297368414	-4.479191953701754	11.051568916631577
O	-2.9399635457368416	-6.368259133701754	12.968081816631578
O	-4.387885309736841	-9.500835873701755	11.463298116631577
O	-3.364381969736842	-10.952480173701755	8.160172686631578
O	10.905479290263157	-2.114539983701754	2.3028090966315786
O	-0.9781067997368416	13.241776626298245	8.939057216631577
O	-4.000729789736841	13.410449426298246	6.576470336631578
O	7.356092880263159	5.587388916298247	5.449331976631578
O	6.988330250263157	-0.2922615637017538	8.479034866631578
O	4.565541370263158	0.3563230962982462	5.589558736631578
O	2.9477702502631584	-1.041129273701754	2.4861893666315784
O	-0.5452962697368415	-2.593204043701754	2.9257116866315784
O	-3.4135218997368417	-4.3042971437017545	1.1967003666315785
O	-2.3167340027368413	-6.309424063701753	-1.7899557033684215
O	0.7895898402631585	-4.085316613701753	-2.3706522833684214
O	-1.4264476857368416	-1.530531063701754	-4.166402293368422
O	-0.5730559597368414	-0.6247505737017538	-7.589991683368422
O	3.0711505802631582	-1.6410082337017537	-7.002120643368421
O	6.275641010263158	0.3843379922982462	-7.177210253368422
O	2.457875640263158	3.832345576298246	-6.918917613368421
O	1.1901371602631583	2.2197161362982465	-3.7575075133684215
O	-2.2484734097368415	3.917839376298246	-3.3504399433684218
O	-3.718593109736841	4.333608116298246	0.14663417763157843
O	-3.3219126597368414	4.797860356298246	3.8315900666315783
O	-5.058717079736841	4.406998396298246	7.198714206631578
O	-4.903229919736841	0.7563340912982461	8.256030046631578
O	-1.2817693707368414	-0.4380061637017538	7.785806466631579
O	1.8956433102631585	0.4399849382982462	9.692613466631578
O	-0.3508260197368416	7.2766483862982465	9.475796696631578
O	2.2707020402631586	6.854980076298245	6.738328866631578
O	1.5346427002631584	5.3294407062982465	3.3434376666315786
O	0.24129019026315834	7.581748126298246	0.5922409556315784
O	1.4216388502631587	7.092805206298246	-2.9642063933684217
O	0.48053741026315855	8.370227136298245	-6.4144295433684215
