74

O	1.814722604393443	1.1430428686295087	-1.1117953159508196
O	0.547988054393443	1.6150836306295089	-1.2067079159508196
O	2.041491234393443	0.04602513262950869	-0.5936563159508195
O	2.709262114393443	1.5887912386295087	-2.0130041159508196
O	-0.742601337606557	1.0079142156295087	-0.25109637495081955
O	-1.603677082606557	2.3150869306295085	-0.9032378719508195
O	-0.865507757606557	3.2701605806295087	-1.5408763459508197
O	0.21533583439344306	2.6541166406295087	-2.0058208159508197
O	-2.882890615606557	2.3082852806295087	-1.1035804059508196
O	-3.492843715606557	3.3880705806295084	-1.6208022659508197
O	-2.770111075606557	4.493771790629509	-1.7674953659508197
O	-1.5782150966065571	4.108771550629509	-2.3263722359508194
O	-1.535846480606557	4.783887080629509	-4.19186096595082
O	1.277635954393443	-5.827357329370491	-7.080543235950819
O	3.4742930043934432	-8.927311789370492	-7.28106505595082
O	-13.398454595606555	0.9236686466295088	-3.8482038759508197
O	-11.688959695606556	-0.28849966337049127	-0.6484586559508194
O	-11.097726195606558	-3.350046189370491	1.4440387840491804
O	-9.221734685606556	2.9619526506295086	6.66319518404918
O	-9.585840125606556	7.637281420629509	4.142856854049181
O	-2.675335205606557	10.473088230629509	7.57586119404918
O	-2.323286395606557	9.772305510629508	11.28555444404918
O	-5.001535875606557	7.477378470629509	12.773179644049181
O	-6.167069495606557	6.136173430629509	9.36979056404918
O	-1.883207823606557	-8.591594509370491	2.7840238140491804
O	-4.859304695606557	-9.013480779370491	0.4804091940491805
O	-7.220438225606557	-7.091173049370491	-1.7546000459508195
O	-6.568678955606557	-3.289928159370491	-5.82005160595082
O	-4.4156156256065575	-2.457859939370491	-8.81746228595082
O	-1.977794315606557	-5.264297659370491	-9.72663094595082
O	0.45232629439344296	-3.1692941093704916	-11.76622145595082
O	3.2431025743934434	-0.8105769093704912	-10.64035955595082
O	2.891893034393443	1.2155879366295088	-13.81932695595082
O	-0.487822314606557	1.4588531816295087	-15.43693505595082
O	-3.583707205606557	-0.22227582437049132	-14.17219445595082
O	0.8839367543934431	-11.045635609370493	-0.8198462899508194
O	10.398531904393444	3.0382742306295087	7.477123224049181
O	11.417835904393442	6.548502510629509	8.609799734049181
O	14.389385704393444	6.526004670629509	6.193754724049181
O	11.973177704393443	5.750234750629509	3.3743743340491803
O	9.511180204393444	8.50216355062951	4.37879463404918
O	2.097087474393443	3.6773031806295085	11.222200044049181
O	5.999547834393443	-0.035995709370491236	6.85026965404918
O	5.787084854393443	-3.4801118493704917	5.27152618404918
O	6.964482204393444	-4.902702999370491	1.9738278340491804
O	10.019548104393444	-5.134565049370491	-0.24127373995081952
O	7.765229284393443	-5.168316769370491	-7.30797421595082
O	5.672391544393443	-6.413942679370491	-4.35067024595082
O	3.219078824393443	-4.096103229370491	-2.5526618959508194
O	-0.41601899260655695	-3.0545654093704915	-1.9185987159508195
O	-1.7304078066065571	-0.46123304937049137	-4.07713410595082
O	-4.746805685606557	1.6240746796295087	-4.788109105950819
O	-8.067085385606557	-0.24402998037049128	-4.18196811595082
O	-6.392817395606557	-2.3648042893704915	-1.4782467159508195
O	-6.804215515606557	0.4702838086295087	1.0427051440491804
O	-8.685030375606557	-0.3619909193704912	4.19433615404918
O	-7.856237905606557	-4.036776789370491	3.8026381940491802
O	-5.945708685606557	-6.344612259370491	6.094338934049181
O	-4.695762035606557	-1.6015677993704913	7.5906092540491805
O	-3.608904735606557	-0.6725077193704913	4.01514019404918
O	-3.164099865606557	3.0801569706295084	4.33855353404918
O	-0.662335998606557	4.698993940629509	1.9220895040491803
O	2.600735544393443	4.647167090629509	0.15288104604918049
O	4.193639504393443	6.395512740629509	-2.7446006859508194
O	2.9588674643934434	5.011053920629509	-5.94671742595082
O	2.9622077043934434	1.2340623386295086	-5.84526731595082
O	5.750633744393443	-1.3322105593704916	-5.74807185595082
O	8.482984494393442	1.2866506616295088	-6.261061545950819
O	8.984554104393442	3.1549587206295087	-1.1379777259508195
O	7.367854654393443	0.3775560286295087	0.9209428230491805
O	3.754153814393443	0.27846621762950874	1.9459771540491804
O	2.600794834393443	2.207548890629509	4.96236613404918
O	-0.030611215606556996	0.6809899582295087	7.2074416340491805
O	-2.131621995606557	1.8091202406295088	10.15163314404918
