33

O	29.092341596758793	14.690903588296674	27.867851833901902
O	30.712154137366763	15.91207709298484	28.709052491702543
O	29.350162689516218	15.858118640138837	28.382615566371964
O	28.288395445659184	16.678899842550422	28.906815722730155
O	28.389598129118482	17.673157076147472	29.874055201073038
O	27.27735023597393	18.386222203058875	30.340233990662373
O	26.15603986285785	18.4745185093741	29.51463621749635
O	26.008731032492353	17.27485187327254	28.821825168354405
O	27.04507026025824	16.51108776096528	28.388921699093675
O	24.863253128082157	19.023673418854102	29.88856419823312
O	24.504965064180496	20.38675668378002	29.726096626004924
O	23.159374791892617	20.43230115493445	29.215567791947716
O	22.133150113535194	20.93821050587607	30.290061629533827
O	23.106709353347647	21.805719492898188	31.08994420992888
O	24.25826628130309	20.79468360499753	31.107600400408213
O	23.324634813386762	19.562513866677893	31.460202544210333
O	23.187338177990995	19.814433379845205	32.9020479697651
O	22.147335017786688	19.353206639223806	33.780900365038924
O	24.57956384155883	19.652971159549576	33.16282980728224
O	25.243961219450323	18.72175499817867	32.34016838844535
O	26.134552393032777	17.952953348441525	32.80797368789949
O	24.319976439865762	18.487479847694544	31.178052330973667
O	25.245187152160888	20.643817975353482	33.96542699306883
O	25.789800752920357	19.713395826136153	35.006704478349135
O	24.875998949558483	18.992582554291047	35.71239520834772
O	25.39613442480514	18.263381409421036	36.75000593005768
O	24.697285055141528	17.543101768073846	37.6920341391704
O	25.697753327771416	16.933879695603935	38.50818423215027
O	26.62088744370663	17.985544169369987	38.53916138652296
O	26.330517352992313	18.92421021889683	37.54040766240298
O	27.228631274271905	19.677979057482936	36.83958109534923
O	26.808053663022793	20.327997085343405	35.72524833561481
O	22.238749143861877	17.872686622944833	33.98793333237395
