18

O	24.434897800355543	20.223437888031185	29.35619425246724
O	23.486305729299477	21.20712502910728	29.304002817878175
O	30.21578178665709	15.740188044408207	29.203416790466836
O	28.061139022999406	17.023502654149507	29.341145635541018
O	27.215101216048435	16.539186314957515	28.305457784743588
O	25.897307920421767	17.134822710084272	28.132654847513393
O	27.62709945644106	18.353792173587856	29.64144758313857
O	26.350671449441933	18.761575191800418	29.26197096534146
O	25.458755186024383	17.723985239405003	29.2676403165986
O	25.709244577708727	20.0771522525433	29.61947602465328
O	22.253851520644915	21.025089562423805	28.52340961707838
O	21.214594868916794	20.883503319083474	29.236664999282837
O	31.598611628685042	15.804820506080507	29.472396111530745
O	29.27734701180924	16.39667209273491	29.654058278936102
O	30.21614312899272	14.310624958419611	29.33631312172067
O	24.10718238075261	17.88160634351032	29.62282517718666
O	23.11741056130035	22.370531258146134	30.17664147134824
O	22.0908459964335	22.196634062446357	27.744527062537443
