71

O	1.972887860998148	5.6919410773203705	0.1484316728407407
O	3.1047218809981483	6.629164627320371	0.03147930374074073
O	2.680289330998148	7.824832247320371	0.8294272557407407
O	1.7065597009981481	8.43369629732037	0.35934094074074074
O	4.360503610998148	6.15204387732037	0.6963179887407407
O	2.737595190998148	7.66390440732037	2.1955334617407405
O	0.716226764998148	1.2831074903203705	1.7373690317407409
O	0.558501718998148	-1.0649302926796294	2.5218958117407406
O	0.785757426998148	4.29064623732037	-1.2369562382592592
O	1.4453485809981481	2.4548727403203703	1.906782141740741
O	1.6726130609981482	0.1808454373203705	3.6943089217407405
O	1.3343817209981481	3.5315624973203703	1.0355388917407407
O	0.5276777569981481	3.4903875273203706	-0.09885702825925927
O	-0.06103647650185194	2.3208715403203706	-0.22482911525925928
O	-0.14666065523185193	1.3033137023203705	0.7208829977407407
O	2.168892190998148	4.743120197320371	1.0244291397407408
O	0.9950754909981481	0.1069502473203705	2.4878115017407407
O	-6.559329969001852	-1.6201888726796296	7.390808041740741
O	-11.786399309001853	8.26503476732037	-5.490242928259259
O	-7.9663278590018525	8.37712744732037	-5.688955398259259
O	-6.720187739001853	4.89793136732037	-6.683899048259259
O	-7.959957619001853	1.4068860306203705	-7.498118148259259
O	-0.19523329890185193	1.5998312783203705	-10.64775606825926
O	2.131065220998148	6.259751447320371	-9.61264741825926
O	9.210947590998147	7.31901334732037	-9.63735393825926
O	9.278653240998148	2.6902392473203705	-7.687054488259259
O	10.392440190998148	-0.06577814267962956	-10.05206396825926
O	7.814325380998148	-1.0697501126796296	-12.69902266825926
O	4.862023070998148	0.5860320183203704	-10.86980136825926
O	-6.460252779001852	-7.468330822679629	-1.5860558182592592
O	-9.965655569001852	-1.2274991226796295	-2.1392895082592593
O	-8.391742659001853	3.2648671573203707	0.8243333077407407
O	-7.837173069001852	4.39142129732037	4.407918341740741
O	-6.887632419001853	3.1735887773203704	9.96614744174074
O	-3.189335439001852	2.6810228273203704	10.843246531740741
O	-3.105206449001852	6.01622697732037	12.64438493174074
O	-5.341747149001852	8.79651336732037	11.45798183174074
O	-7.7564310290018526	8.50746445732037	8.61180255174074
O	14.932433490998148	-7.571791312679631	5.415740341740741
O	11.955366590998148	-5.26878558267963	5.889232321740741
O	13.083809190998148	-2.82594549267963	3.1699938817407407
O	13.065142190998147	-4.430478062679629	-3.2923222982592595
O	0.746409332998148	-8.95938942267963	4.651774411740741
O	1.3494864409981482	-9.34178002267963	8.351830521740741
O	-3.536261769001852	-5.707623392679629	8.46405279174074
O	-2.373365079001852	-3.9639272526796296	5.242379211740741
O	-3.305173159001852	-1.9004786326796297	2.240580311740741
O	-3.115738769001852	1.8198705493203704	2.5824325317407406
O	-3.389232579001852	5.123533527320371	0.7827037417407408
O	-6.238124479001852	5.101580387320371	-1.7128863382592592
O	-5.845890419001853	1.3261543043203705	-2.2779746782592594
O	-2.946376309001852	1.9941103103203703	-4.687671468259259
O	-3.366579939001852	0.5589885893203704	-8.14540283825926
O	-5.860763469001852	-2.0504752026796296	-6.937657708259259
O	-5.677785839001852	-5.83465656267963	-7.021875928259259
O	-0.8569702980018519	-4.219526562679629	-7.772695128259259
O	-1.000352203001852	-2.1640624726796296	-4.5715957282592585
O	2.195559730998148	-0.07076305267962946	-4.901945658259259
O	3.9500640809981484	1.0122019473203705	-1.716193268259259
O	4.875353900998148	0.5065694943203705	1.9078152717407408
O	5.888724320998148	2.4621189443203706	4.965483481740741
O	2.900325280998148	4.063067337320371	6.546643881740741
O	0.11724307399814804	1.5117204787203704	6.765416611740741
O	-0.25046855500185194	-1.5859942626796295	8.94028610174074
O	2.952020900998148	-0.9409461226796294	10.89508773174074
O	6.629143740998147	-2.9330599126796293	7.382175911740741
O	4.502757310998148	-5.11552175267963	5.0986600117407415
O	2.880218080998148	-3.9322391326796295	1.9018904917407409
O	4.901582980998148	-3.9246506526796296	-1.2807059082592591
O	3.192196490998148	-4.79169150267963	-4.507143998259259
O	4.078403390998147	-4.72753424267963	-8.22247082825926
