77

O	-3.5921895667924533	1.864274209037736	-4.111376876396227
O	-2.6664486017924536	2.393925069037736	-3.218871766396226
O	-4.097738616792453	2.997050329037736	-4.987589866396227
O	-4.457855486792454	2.373018679037736	-6.188663426396227
O	-5.327611836792453	3.520975349037736	-4.248027456396226
O	-6.421854766792453	2.487168789037736	-4.493150456396227
O	-5.916537236792454	1.067893412037736	-4.254266456396226
O	-4.723975056792454	1.174306573037736	-3.3578807663962262
O	-4.033050266792453	-3.475505140962264	0.29563119360377355
O	-3.4981715867924534	-4.8803607409622645	2.266187483603774
O	-2.8548104277924535	-2.7152769609622642	0.7000687436037737
O	-5.298505036792454	-5.3469017909622645	0.9190129636037737
O	-3.1402293037924536	-1.278780570962264	0.3913827236037736
O	-3.7244068267924533	0.176898928037736	-1.4486424433962264
O	-3.2453366467924534	-1.126194760962264	-1.0845270933962263
O	-5.097607736792454	-1.146242670962264	-2.4502640963962263
O	-4.323253496792454	-2.000772020962264	-1.5964342473962263
O	-5.007735336792454	-2.636083470962264	-0.43884530939622635
O	-4.4934377867924535	-4.283012550962264	1.4415265236037738
O	-4.183121736792454	-0.09716037096226404	-2.8127938863962263
O	-4.629917766792453	3.247693409037736	-7.243291466396227
O	-3.3796178567924535	3.957277299037736	-7.677764266396227
O	-3.0046528257924536	3.693796289037736	-9.108784966396225
O	-3.3473544367924535	5.409879319037736	-7.302476166396227
O	2.3244629532075463	-10.893247890962265	-2.0364531663962264
O	3.857900283207546	-13.944686290962263	-0.38729340939622636
O	11.699373183207546	5.170297799037736	0.056842495603773635
O	10.132303483207547	4.937382409037736	-3.3720011963962264
O	7.845048083207546	7.804183439037736	-4.468176376396227
O	7.662724113207547	5.330284059037736	-12.325280936396226
O	7.281436453207547	3.955585699037736	-8.800783146396226
O	3.7692459432075465	4.647696409037736	-7.458115836396226
O	3.8732524132075463	4.455367499037736	-3.6395067863962263
O	6.225743423207547	3.7959335090377357	-0.7767448413962263
O	7.167285023207546	5.937621129037736	2.173680203603774
O	3.496931203207547	8.157519939037737	3.459204793603774
O	-0.22320458679245347	7.732304459037736	2.8617684136037735
O	-2.4967202407924534	10.714282039037737	2.1111398936037737
O	-4.037607116792453	8.727733899037736	-0.7243090003962264
O	-0.6396861467924535	8.760697189037735	-2.4740485963962264
O	-7.9726700367924535	12.883141009037736	5.9193686236037735
O	-10.011649526792453	6.478383009037736	4.451301313603773
O	-9.658474946792452	7.817335499037736	7.996446193603773
O	-6.351192436792454	9.602727319037736	8.730401493603773
O	-4.546547636792454	8.167640329037736	5.656340073603773
O	-1.2100474277924536	9.831053799037736	6.411617103603773
O	8.057283783207547	-3.7819470209622637	2.6747980236037736
O	7.620144473207546	-2.3233116809622643	-0.7968989563962263
O	4.110218623207547	-3.260420700962264	-5.069927396396227
O	2.4134068332075467	-6.091715600962264	-6.9476535963962265
O	3.5655447332075463	-9.568621090962264	-5.866945386396226
O	0.6017325032075465	-11.577963090962264	-7.164308116396227
O	-2.8433673747924537	-10.764401390962263	-12.013490136396225
O	0.16449825320754652	-8.526517950962266	-11.808039636396225
O	6.864612733207547	-9.611127090962263	4.614410283603774
O	-14.426243116792454	-5.1167447609622645	7.485093143603772
O	-0.2705377967924536	-9.289797290962262	2.230106963603774
O	0.7799165632075464	-5.894691070962264	0.9808117336037737
O	-0.7229629867924534	-4.785427760962264	-2.3245253463962263
O	-1.0432196367924536	-1.9336547409622642	-4.8896032063962265
O	2.1541105432075467	-0.0014764659622640286	-5.121320786396227
O	3.097627223207547	-0.800604540962264	-1.4946756253962263
O	0.7823413832075463	2.0045811890377356	-0.2996668243962264
O	2.3672848132075464	4.6244459090377354	1.8275161936037736
O	5.168002653207546	2.278251609037736	2.845389933603774
O	1.4393169632075464	2.878396749037736	6.857598773603773
O	0.20348539320754666	0.6472284850377359	4.050695303603773
O	-3.305034096792453	2.063663169037736	3.450927413603774
O	-6.012854926792453	-0.24083077096226413	2.0344387236037735
O	-7.606858396792454	-3.6863361909622636	1.922470423603774
O	-9.774686666792453	-5.657546600962264	-0.3967163003962264
O	-7.923550166792453	-6.909648460962264	-3.388991576396226
O	-4.636642296792454	-8.397257970962265	-2.1977109863962263
O	-6.264622186792454	-8.708672550962262	5.765951533603773
O	-4.379036546792454	-5.499089700962264	5.037182123603773
O	-5.487293246792453	-2.302295820962264	6.708554493603773
O	-2.8805244837924535	0.16429694903773595	7.929131503603773
