80

O	5.3724560468076925	3.051609992725	5.112194406865385
O	5.603278156807693	3.6160657127249998	3.8251785468653847
O	3.467360486807692	4.480666462725	0.7554612528653847
O	0.04525614680769202	3.557508882725	1.9780028068653848
O	4.1980469268076925	2.345874598725	2.2579431268653845
O	5.935643306807692	5.073925252725	4.066997956865385
O	-0.08939227588230798	1.990512763725	1.9409617568653847
O	4.916983596807692	6.013537212725001	3.4231096168653847
O	1.2140996168076919	1.555260722725	2.4810232168653847
O	5.1359684168076924	5.766446242725	1.9299289568653846
O	1.4060409668076919	0.13579682272500015	2.3272696468653846
O	2.008119736807692	-0.2156187972750001	3.5786774368653846
O	2.4101357668076924	-1.611806797275	3.5329863468653846
O	3.588005206807692	-1.472049917275	2.9927263068653844
O	1.6648686068076919	-2.624830227275	2.9224543868653847
O	4.524037966807692	4.437951192725	1.7641380568653848
O	2.375406136807692	5.337080592725	2.5987194868653845
O	4.062933106807693	5.283870262725	5.945441986865385
O	1.262683946807692	3.6845174427250003	1.2487793368653848
O	-0.510686794192308	5.048603132725	0.25396401286538467
O	6.6425940868076925	5.020466922725	6.224705556865385
O	4.5701460068076925	3.4373749527250004	2.7878350868653845
O	2.320977786807692	4.418794452725	1.7615757068653846
O	-1.036716824192308	4.295194262725	1.2874414188653847
O	1.526618586807692	2.381137413725	3.6338098768653846
O	2.385285206807692	1.957857813725	4.733219756865385
O	2.920805906807692	0.609790962725	4.3725629568653845
O	5.513172126807692	3.358161662725	6.367310466865385
O	-6.558979013192308	-6.444659507275	5.912619016865385
O	-7.274982963192308	9.582325122724999	2.1350122568653846
O	-6.429371863192308	7.481242622725	-0.9406903531346152
O	-8.049605853192308	5.394738162725	-3.618505213134615
O	-7.928104853192308	5.740961482725	-7.380828443134615
O	-0.39374024319230794	7.005667332725	-6.679670793134615
O	2.5443179268076923	9.634122692725	-3.0156877531346153
O	-1.146229253192308	10.591269142725	-2.6481239731346156
O	11.048696056807692	9.646814142725	-6.715892563134615
O	9.697109136807692	9.930652502725	-3.1419917831346154
O	9.232685696807692	5.143971292725	-4.608961063134615
O	9.934670956807691	4.491079502725	-8.290011993134614
O	7.183382216807692	5.648783272725	-10.682425873134616
O	4.510805126807692	5.966564362725	-7.910993743134615
O	1.741821576807692	7.003180172725	-10.321892873134615
O	-7.477700283192307	-5.225405917274999	-4.755898993134615
O	-7.967820903192308	1.562594514725	4.042531136865385
O	-7.036646533192308	0.20600507272500002	7.494594716865385
O	-6.155155693192308	-4.331922287275	10.937211826865385
O	-2.534804773192308	-5.583209377275	10.881878326865385
O	-1.9354780531923081	-4.186257297275	14.357885126865385
O	-3.7888002631923077	-1.0907435772749998	15.423583126865385
O	-6.269764143192308	0.735034542725	13.303474126865385
O	11.219345356807692	-9.884559577275	0.38713857086538467
O	12.602035456807693	-6.373809897275001	-0.27927240613461535
O	12.158591856807693	-3.436301927275	-6.229539763134615
O	-0.37194867319230795	-10.925616177275	-1.6282801831346156
O	-4.101892843192307	-10.549256277275	3.8379632468653844
O	-2.902956563192308	-7.314169517274999	2.273128096865385
O	-3.6953619131923077	-3.7448814472749996	1.3150161368653848
O	-2.762191343192308	-1.0629166772749998	3.8771227968653847
O	-2.9022901931923077	2.613319907725	4.605599716865385
O	-5.698935263192308	4.434431112725	2.9878920068653847
O	-5.727660023192308	1.885762828325	0.17804088686538466
O	-2.960270483192308	3.669472212725	-1.6259236631346154
O	-3.5997173131923077	4.842440182725	-5.106764243134615
O	-6.353272883192308	2.249460292725	-5.557693723134615
O	-6.615759493192308	-0.5948554372749999	-8.015221573134616
O	-1.662645523192308	0.765077912725	-8.045364523134616
O	-1.4697421031923081	0.298083162725	-4.266610503134615
O	1.9169617068076918	1.8290067084250001	-3.491991493134616
O	3.895576196807692	0.5666739327250001	-0.5877506931346154
O	5.103488146807692	-2.3781630872749995	1.5710503608653847
O	6.3128075768076926	-2.845077627275	5.284365226865385
O	3.568202646807692	-2.377355837275	7.838672486865385
O	0.427348489807692	-4.296678977275	6.761880306865385
O	-0.290794550192308	-7.961436437274999	6.401671586865385
O	6.320424006807692	-8.555980877275	3.6321103768653846
O	3.8366044168076923	-8.553514477275	0.7486422348653846
O	2.276208556807692	-5.495444077275	-0.8077190331346152
O	4.187873226807692	-3.6188121172749996	-3.4689794531346156
O	2.343667516807692	-2.0877057772749996	-6.366397033134615
