11

O	27.045421901143527	17.597974012493843	28.41120775186006
O	28.143757609495935	16.738244243707488	28.854928541330743
O	25.21063038267318	19.878637316654327	28.576278801947012
O	25.768752636870268	17.434861182095712	29.11079226685212
O	25.910751407415407	18.28550000681087	30.252326562040913
O	26.827319885889583	21.32904135197745	28.935686001344845
O	24.671468519021463	18.91640005602703	30.513564300134274
O	26.917721686307928	19.251869381433295	30.046134122176312
O	26.17140892142112	20.39405765552808	29.400496444679675
O	24.16557842569489	20.613350796958876	28.14339818738413
O	27.687704244625206	18.881404851825494	28.856356438996396
