73

O	-1.7801810895803276	1.4323133848688525	1.4262213479344263
O	0.5565148724196722	0.6626230266688524	1.6953183579344262
O	-2.3239564345803276	0.5806747276688524	0.47233357243442625
O	-0.3924638875803277	2.2350423578688523	3.0037976779344264
O	-3.694809987580328	1.0409857208688524	0.32470252983442627
O	-6.097807777580328	1.6715048778688524	1.3958313279344263
O	-4.736227957580327	1.4003955668688524	1.2245839559344263
O	-5.1583659975803275	3.2994794678688524	2.320428757934426
O	-4.1259465675803275	2.268702487868852	2.262894557934426
O	-2.7212436375803275	2.2878288678688525	2.0976054279344263
O	-0.4338208275803277	1.5818962678688524	1.7822870579344263
O	-6.423100477580328	2.7757445378688526	2.228324297934426
O	4.969627392419672	7.174354257868853	-3.0218388420655735
O	8.776116312419672	7.525546687868852	-3.296380212065574
O	-9.302751607580328	2.9135227978688523	-10.100753252065573
O	-7.160659367580328	-0.15390106613114762	-9.305369632065574
O	-4.303977447580328	-2.1731863721311475	-10.654303052065574
O	-7.774867377580327	-7.301648592131148	-4.979407712065574
O	-11.805170787580328	-4.931453832131147	-2.511287872065574
O	-9.467491117580327	-7.8522204721311475	4.884578217934426
O	-8.506338927580327	-11.523805472131148	4.891145177934426
O	-8.339090257580327	-13.154230772131148	1.4314352579344263
O	-8.200655037580328	-9.818031672131148	-0.4753347260655737
O	5.584567352419672	-2.8395495221311475	-6.724806562065574
O	3.9437347124196718	-0.7413582221311477	-9.426627762065573
O	0.8487474024196724	1.3238656548688523	-10.126369052065574
O	-1.9289101645803277	5.391714427868852	-7.414432462065574
O	-1.3101595675803277	8.541464487868852	-5.396718372065574
O	2.3739467524196725	9.598969777868852	-5.332548852065574
O	2.249232812419672	11.815724227868852	-2.248886922065574
O	2.2768968824196723	10.896866627868851	1.4735306979344263
O	0.37418127241967225	14.063578327868852	2.300888887934426
O	-2.0378543975803276	15.453588927868852	-0.24123405406557374
O	-2.6893230075803274	13.961137927868853	-3.620538312065573
O	9.078002112419671	0.9314875798688524	-6.311418432065573
O	4.546416792419672	-6.793120432131147	10.310155057934427
O	2.531514332419672	-7.883812752131147	13.373740447934427
O	4.349713832419672	-5.298886862131148	15.542763247934426
O	3.2754986824196726	-2.6237727221311475	13.068960547934427
O	-0.36751295758032754	-3.807068322131147	12.974657547934427
O	-1.0109228775803276	-11.076884172131148	4.480265977934426
O	4.074837482419672	-6.401201552131148	4.951864897934427
O	6.508444342419672	-4.816478202131147	2.5346026679344265
O	8.224661162419672	-1.4762314421311475	2.388578187934426
O	10.239082712419671	0.9215326318688524	4.486415137934427
O	8.560406912419673	7.808539997868852	2.3933441679344263
O	8.302055842419673	4.733514827868852	0.1386459209344263
O	5.037006972419672	2.7736421378688525	-0.17139681706557375
O	2.1137585924196722	1.8965821878688525	-2.3685477620655737
O	-0.9338369685803276	4.005108347868852	-1.9239299720655738
O	-4.5784095375803275	4.475033337868853	-2.9320763420655735
O	-5.164886107580328	3.6087343178688522	-6.562569902065573
O	-2.2978713105803275	1.0637005538688524	-6.481443172065574
O	-4.622561997580328	-1.4958624521311474	-4.920659892065573
O	-4.986816057580327	-4.761862942131147	-6.763514822065574
O	-1.6295621685803277	-4.304874922131148	-8.464153572065573
O	1.4702680524196723	-6.437295562131148	-8.304605622065573
O	-1.3642963635803276	-7.872439822131149	-4.2800222620655735
O	-1.5661982431803276	-4.242344652131148	-3.0274405120655734
O	-4.201567177580328	-4.549611002131147	-0.31881565106557375
O	-4.018692317580328	-2.195756832131148	2.668227507934426
O	-1.9745385735803276	-0.029185617131147645	5.079205197934426
O	-2.3510046025803275	3.0350978578688523	7.3649072279344265
O	-2.1831247135803276	6.250600387868852	5.344071597934427
O	0.6067670324196726	6.038629857868852	2.781850747934426
O	4.337748082419672	6.101289677868852	3.325732117934426
O	4.109759172419672	6.804274987868853	7.068669587934426
O	3.199876652419672	1.7109890178688523	8.902061957934427
O	4.377020182419672	-0.43023545213114756	5.984388797934426
O	2.1026017424196723	-1.6062898621311477	3.176587007934426
O	0.14787778241967242	-4.781101862131148	3.648276367934426
O	-0.2373592775803277	-7.174612532131148	0.7578817039344263
O	-2.2739590445803275	-10.270775872131148	-0.019999485065573752
