24

O	23.06674114640844	18.443823005827873	28.7541256804584
O	22.70028712183665	17.97877266905291	27.16743244057313
O	22.172548021537686	19.85694354686918	28.65805193802708
O	29.677156790812575	15.625217055402059	28.22434781267655
O	29.79273602484706	14.6776584621837	27.397399114425184
O	28.48820558809559	16.41929981886261	28.41560772576793
O	31.002809840447735	16.09783655993974	28.515104983338286
O	28.37419577443261	17.660470322675742	29.040577979885523
O	24.305462564253286	18.324680209882366	31.010465928246717
O	22.832924283525166	19.604480813090625	31.790220350569115
O	27.20351679177857	18.30414892570142	29.569111336783237
O	25.004269813476945	20.23653771458572	32.43098801144079
O	25.883823275630366	17.934051941897927	29.303078841395486
O	26.039653696082258	16.727813453353228	28.72257698638296
O	27.21460360753225	16.101127724776237	28.17865033535333
O	24.54119352136412	18.42202845621447	29.619818388628865
O	24.08292079261612	19.535007550157115	31.68411131188648
O	24.61504144643962	21.590618301257948	32.650312808666584
O	24.44829369928258	22.094774886906357	31.25377348364759
O	25.37824074652902	22.824303154039768	30.580857868206596
O	24.851620933311825	23.86993624744693	29.827457866013177
O	23.480485273729492	24.044694277584785	29.660427830406306
O	22.622590678720528	22.995609125836115	29.97576866262397
O	23.189729802107028	22.02920282822025	30.757480509753396
