13

O	29.0911437050827	15.34825867932671	27.821465927705304
O	30.623262170255988	13.653581183683526	27.541890978336543
O	27.944410101224793	14.595307038484927	27.679038352751945
O	31.426040791589145	15.534957903646097	28.21604364796747
O	27.17226527764103	15.290344361942784	28.72124057269191
O	27.201513148342162	17.172308911073017	30.140575130263116
O	27.051629859117504	16.68108497792042	28.802012693018394
O	28.397994242157065	18.47631365608706	29.209014925431767
O	28.185262062067746	17.33529935036242	28.36430143595696
O	29.300527344725317	16.589956813150717	28.436323176256504
O	30.29398886287778	14.752191351484038	28.14529888669307
O	28.45565311087904	17.577351874870953	30.269380646756172
O	29.831938638200338	16.88277229501857	30.43836153047137
