38

O	25.705607123024393	18.457581391127377	29.932875198554107
O	25.625874879822984	19.457389204719053	30.83525398468436
O	26.68719374849927	20.222451243123526	31.205618832835746
O	27.897972221953793	19.81062960073958	30.655482756468196
O	27.997127861105298	18.697560628533854	29.797261293167818
O	26.826992076044313	18.464779010755795	29.08097866581556
O	26.813433736513172	17.346404163331027	28.242839347204665
O	27.819815575117225	16.37942257953517	28.280101068617178
O	28.988030630547193	16.822847734372626	28.819017444300666
O	29.14763331384351	18.079514265551612	29.410637192706524
O	30.091709565814348	15.951826701347217	28.560299612350615
O	31.184884801515334	16.237314661629462	29.109431064776693
O	30.09259784728568	14.625132342989007	28.141102426118387
O	26.277730905070285	21.593659733505106	31.71045592496299
O	26.449333536715457	21.806455034471277	33.08593801970219
O	27.616602930011396	23.052855568818888	33.17189343727266
O	26.842612396606597	24.456085519699204	32.379417874956346
O	27.91607577006696	23.21732433265909	34.6102503939968
O	28.86904795403113	22.787955491898842	32.45024234325476
O	26.7880077668831	20.657497546264175	33.879910707756714
O	25.917894272653395	19.61905950710561	33.68145596813728
O	26.054868673498866	18.508382280265188	34.51006923639041
O	26.74968413431437	18.711023197340115	35.67159035127236
O	26.7639589028048	19.99886265874205	36.1737145373175
O	26.992650390911095	20.995927705504226	35.22667452824905
O	25.47310582945847	24.19911792093974	31.909068698747532
O	24.54134531745187	24.86134868867599	32.45877725987035
O	25.26690818907834	23.892326222902163	30.56048341260657
O	27.157703614524117	17.719730312016356	36.54475306220834
O	26.249645879652313	17.444885099919244	37.537009353671586
O	25.051693355551887	18.316269569042095	37.622620280291805
O	24.734726454215398	18.43159951904545	39.085685261718936
O	25.690031572041907	17.670904470185086	39.90911614725873
O	25.851122045652005	16.25092248764519	39.58036635464408
O	26.238370138903623	16.111763084314667	38.150189872990566
O	26.933789696898042	18.367181416355287	40.05816351317043
O	28.234363285337466	17.881708764096395	39.565990460408315
O	26.823352423869597	19.56512662333612	40.55583556777482
