16

O	29.937274013049155	15.192858934024557	28.516399532472846
O	29.95798057881254	13.964600068770782	28.171780126747084
O	23.196847813196054	19.72111436208472	28.41204428011926
O	28.710415737001266	16.002061613046635	28.564555703487212
O	24.52205568342644	19.250168113274896	28.3950636929729
O	21.974544910478937	22.10258810800826	26.37103055388888
O	27.727584644991865	15.57787769817535	27.770296346353092
O	31.174045291591924	15.60788120524059	29.046980603790406
O	20.57648172846139	20.658426050667195	27.321464703309516
O	26.520582091616834	16.24709403020353	27.500545747150916
O	26.205529782371286	17.436786403769396	28.146766331674797
O	24.894535078240793	18.03787074601911	28.255577588087814
O	22.777185878677262	21.03964833251986	28.22855994948774
O	21.880547824009724	21.04475877564858	27.064811355921112
O	27.158605580507384	17.732840140196817	29.031490745717797
O	28.473466961235324	17.24805844974579	29.047749176428425
