72

O	5.549997723527273	-0.5309942717454545	-2.6445686596909095
O	6.928011923527273	-0.9075234157454546	-2.4807164196909093
O	7.751717163527273	0.18185074725454542	-1.8536289406909092
O	8.117354783527274	1.0891114832545454	-2.642942739690909
O	7.723609953527273	-1.3528817357454546	-3.664500169690909
O	8.857449443527273	-0.30762904574545463	-1.1251824406909092
O	0.7881817345272729	-1.9897821057454546	-2.628442909690909
O	-1.580136366472727	-2.4216405457454546	-2.418918439690909
O	4.096390653527273	0.2205256072545454	-1.0437965606909092
O	2.0818556735272726	-1.9411387557454547	-3.2223546196909094
O	-0.9734605064727271	-3.2659495957454547	-4.126722159690909
O	3.2461538935272727	-1.4012158957454546	-2.6676283996909094
O	3.0195778935272726	-0.43501003574545466	-1.6866969576909092
O	1.998328223527273	-0.7899944857454546	-0.8856862361909092
O	0.8424626655272729	-1.4342518657454546	-1.4032568226909092
O	4.654781093527273	-1.3253729957454548	-3.125839649690909
O	-0.540229832472727	-2.3715980357454547	-3.1297641196909094
O	-3.6374681464727274	-9.483581165745454	2.6607889603090906
O	9.145213063527272	-1.8691022757454547	10.97244944030909
O	9.188383063527272	-0.27305044874545464	7.481032690309091
O	6.017427613527273	1.8241430642545453	7.084317910309091
O	2.8671352535272727	2.7979689942545454	8.91912583030909
O	1.553717663527273	6.202064154254545	9.86830394030909
O	3.4826657335272726	8.549182544254545	2.8501869303090905
O	7.667382793527273	7.525350414254546	-0.27613397169090925
O	8.425651633527274	6.322322464254546	3.294012050309091
O	8.356499983527273	10.044625784254546	-6.9737382796909095
O	3.4074016835272727	9.219638014254546	-7.135433529690909
O	1.250236823527273	12.341283154254546	-6.955383959690909
O	1.0346779335272729	13.960780154254545	-3.4929387796909093
O	2.3390122235272726	10.846347554254546	-1.6383053426909093
O	2.0408521835272726	12.380605954254545	1.817574600309091
O	-7.193734736472726	-0.16377571974545463	6.53257733030909
O	-4.561026036472727	-1.4407502457454546	8.94654828030909
O	-0.8707925724727271	-2.2566024257454544	9.199739540309091
O	2.715071493527273	-5.277164805745454	6.13866261030909
O	2.9614730535272726	-8.521261895745454	4.157589020309091
O	0.40622498652727285	-12.937206045745455	1.4570890403090906
O	-0.4329612994727271	-12.217114545745455	-2.2192817996909096
O	2.3312983435272727	-14.547655745745455	-3.3471108396909095
O	5.424151953527273	-14.877454545745454	-1.2193113116909093
O	5.941942363527273	-13.146782145745455	2.0638502503090908
O	-7.773580546472727	-0.38352329274545466	-13.38633765969091
O	-4.771795896472727	1.9844880842545454	-13.799708059690909
O	-4.721269896472727	8.143248994254545	-11.27011475969091
O	-10.379119476472727	-2.7675810357454544	-2.166198929690909
O	-8.003085186472727	-8.491707405745455	0.027629798309090736
O	-5.5876871064727265	-5.507791555745455	-0.1313212296909093
O	-2.8044986164727272	-3.5340549657454545	1.4726650003090906
O	0.677302071527273	-4.506436335745454	0.7134980003090907
O	4.255881013527273	-3.747382725745455	1.2896613803090906
O	5.0173845735272735	-2.5273780657454545	4.776851310309091
O	1.500713233527273	-1.0947023457454546	5.099295430309091
O	2.5783912935272726	2.0204104542545456	3.168510800309091
O	2.0331385435272726	5.270175234254546	4.984175630309091
O	-0.6901711834727271	3.782426744254545	7.19994239030909
O	-4.345779806472727	4.714450974254546	7.57199600030909
O	-2.811621566472727	6.894368134254545	3.1741647303090903
O	-1.616290446472727	3.539795114254545	1.9077986903090909
O	0.39834606352727286	4.552981264254545	-1.2133804316909094
O	0.611053922527273	2.1462297942545456	-4.149483109690909
O	-0.7790236444727271	-0.6572716357454547	-6.254763819690909
O	0.2318920625272729	-3.4901104757454546	-8.552862589690909
O	1.548069823527273	-6.387364225745455	-6.555664169690909
O	-0.7558177754727271	-7.090187275745454	-3.6890188696909094
O	-4.263638666472727	-8.530742435745454	-3.7109741996909094
O	-5.498071496472726	-4.231078285745455	-9.30042176969091
O	-6.949410116472727	-2.5326661357454547	-6.25323610969091
O	-4.855562066472727	-0.5819471357454546	-3.8102608896909094
O	-4.350854766472727	3.1345501942545453	-4.503023719690909
O	-4.335899816472727	5.602705414254546	-1.6683045546909092
O	-3.419431576472727	9.273284694254546	-1.1573249006909092
