83

O	-7.445428993319998	2.495662120247999	2.8032450607859998
O	-6.926586853319998	3.599947294247999	1.8599966407859996
O	-5.531351483319999	3.244008729247999	1.6476381607859998
O	-4.365673653319999	3.462119980247999	2.539222290786
O	-5.043551713319999	2.722894762547999	3.5446946307859997
O	-6.281820883319999	2.2700648782479993	3.7001201507859998
O	-3.649993043319999	2.345031683247999	4.105257260786
O	-2.8382515903199987	3.670025583247999	2.4718199507859997
O	-2.499113827319999	3.0037135152479992	3.5944286907859997
O	-3.228159386319999	2.691793527847999	1.5849260607859996
O	-1.289856603319999	3.409562203247999	4.037477590786
O	-0.631739153319999	4.381923950247999	4.714262950786
O	-0.880782573319999	5.646030480247999	3.8780222607859995
O	-2.346429490319999	5.880946690247999	3.7375089707859996
O	-0.24070723331999888	3.6132723442479993	3.0541172307859994
O	-3.275871375319999	3.783162290247999	0.5688995347859997
O	-0.512740793319999	4.445166430247999	0.11756401458599972
O	-1.520233393319999	3.7836286502479988	0.5908215167859997
O	-4.120338873319999	4.884622690247999	0.7441938407859997
O	-3.005668032319999	5.932159950247999	0.7806137917859998
O	-1.668481809319999	5.450316110247999	0.6951555407859997
O	0.24625282668000104	3.905652020247999	-0.9081704892140002
O	0.22154313668000114	4.051022170247999	-2.3065770492140003
O	0.9908619766800011	2.810711948347999	-1.1113630792140001
O	-4.362186013319999	5.309867040247999	5.196875440786
O	-5.432147043319999	5.518979570247999	4.112214370786
O	-4.844956483319999	6.521524430247998	3.3902026507859997
O	-3.259554898319999	6.575488020247999	3.1564215307859995
O	-2.894745255319999	5.291812810247999	4.879757020786
O	-6.514382403319999	5.420245610247999	4.958495680786
O	-6.416731233319998	4.475116620247999	6.088121130786
O	-7.825338623319999	5.2973256302479985	4.485950040786
O	-6.266797583319999	6.6918197602479985	5.692031600786
O	8.32955280668	4.036760350247999	11.107956660786
O	7.701703006680001	0.744812220247999	9.337704870786
O	9.64147230668	-2.0192405197520005	7.769883800786
O	2.046166336680001	-5.543967369752001	8.743307010786
O	-1.185296713319999	-2.025771959752001	10.817311260786001
O	-9.811787033319998	-5.4533200197520015	9.959849870786
O	-8.452767023319998	-1.909307599752001	10.167445460786
O	-11.229248603319999	-0.4915871997520007	7.935576480786
O	-11.111519783319999	-2.8716070797520006	5.034625070786
O	-7.426934783319998	-3.736159139752001	5.592035450786
O	-8.02902906332	-7.384509179752	5.1908724107860005
O	-5.452940723319999	-9.710698079752	6.8522393107860005
O	-2.748144819319999	-7.067923759752001	7.259615360786
O	5.565249256680001	10.751036610247999	-5.5531507892139995
O	4.8548634366800005	14.384757120248	-4.738824139214
O	6.43805731668	15.838855620247998	-1.6413344692140002
O	-10.12663342332	-2.8489925097520006	-11.704136239214
O	-7.681316113319999	-0.5204837097520008	-10.026456739214
O	-9.484562573319998	-0.6121000797520009	-6.587702909214
O	-13.12464679332	-1.629713399752001	-7.157371699214
O	-11.61793466332	-3.210918329752001	-2.0802443292140005
O	-9.39063497332	-6.1015744197520005	-2.955207769214
O	4.189789276680001	-2.3179374797520005	-9.348583659214
O	3.830127596680001	-0.1766372497520008	-12.391911039214
O	7.73174860668	3.1894738302479992	-9.073120349214
O	5.942933786680001	2.176756460247999	-5.833421429214
O	6.15575569668	1.840352943247999	-2.1359282492140004
O	4.50517859668	4.557301650247999	0.07736766648599971
O	4.511132066680002	5.5162838702479995	3.3755908307859994
O	7.193184926680001	4.284676420247999	5.755262230786
O	7.63451140668	1.2447109802479992	3.5640749807859997
O	4.752917396680001	-0.506095479752001	5.266926800786
O	5.390730616680001	-3.8366060497520005	6.907267480786
O	8.43235780668	-4.3666317997520006	4.712575710786
O	9.099374306680001	-7.071992989752	2.2131615507859994
O	4.041402786680001	-7.247934879752001	2.9616850107859998
O	3.7982215066800014	-3.5361623997520013	2.0887655307859996
O	0.3355591966800011	-3.0993815397520006	3.0220259907859996
O	-1.338229933319999	-0.429781769752001	1.0240105927859997
O	-2.243165299319999	1.505516720247999	-2.5194320992140002
O	-3.708554393319999	5.137774580247999	-3.9440179892140006
O	-1.111890343319999	8.173542420248	-3.3967673692140004
O	2.3847318566800007	6.814512160247999	-4.155146359214
O	3.5870878566800006	5.973648430248	-7.570742589214
O	0.48304768668000087	7.231268950247999	-9.395758949214
O	-2.852333945319999	2.830214904847999	-8.792162989214
O	-0.3625004933199989	0.09255795024799918	-7.970987049213999
O	0.805885666680001	-0.9021651497520007	-4.491734189214
O	-1.283863263319999	-3.5654123897520007	-2.7084121492140003
O	0.39119164668000117	-6.130200659752	-0.5645818562140003
