70

O	2.5224874729396554	-0.22250471910344816	-0.7816386877155175
O	1.8884203029396551	-0.35640317110344816	-1.9767741767155174
O	0.8629137029396552	0.8753582898965518	-1.5091502867155173
O	0.9570875929396552	0.7737805068965519	0.16122778678448257
O	1.8715331229396552	-0.2084192561034482	0.34956927028448254
O	1.6909774529396553	-1.3151386591034482	1.2405994132844826
O	2.610239022939655	-2.340509009103448	0.9512426602844826
O	1.9352179829396552	-1.7831747791034482	-2.2536292067155177
O	3.1931190829396554	-2.3942644091034477	-2.2255665167155176
O	3.818514182939655	-1.2615707891034482	-2.1275838467155177
O	3.707869022939655	-0.5250876341034482	-1.0696181867155174
O	5.049363322939655	-0.7559923181034481	-3.5242356367155176
O	-5.246879727060345	-6.398236509103448	-1.6736116067155173
O	-8.016695427060345	-8.08840920910345	0.23986833628448256
O	-3.1941113770603446	5.554524530896552	-13.625342106715518
O	-0.02922334706034485	5.761498760896552	-11.494117606715518
O	-1.053087099060345	7.128333920896552	-8.066675526715517
O	-4.006265027060345	8.22412525089655	-5.986417326715517
O	2.6068435529396554	11.379117150896551	-1.8671434667155173
O	7.1483498429396555	9.89938856089655	-4.2731850367155175
O	10.881185602939656	8.25805478089655	2.8429393132844822
O	7.803210812939655	13.59336255089655	4.734862803284483
O	6.223436552939655	11.636472450896552	1.8246513532844826
O	-8.101997367060346	3.052680960896552	2.5240563832844822
O	-8.933805927060344	3.161688510896552	-1.1828195667155175
O	-7.377384637060345	3.078824910896552	-4.636523826715517
O	-6.882676447060345	1.513495120896552	-8.051061526715518
O	-3.6437618970603447	-0.24301720410344818	-7.203379436715517
O	-2.6589955270603447	-3.9003104991034476	-7.504243896715517
O	-5.184517897060345	-6.322357609103448	-5.9220937067155175
O	-2.920819757060345	-9.375670489103449	-5.6064636167155175
O	-0.20167872606034484	-10.169251249103448	-2.9968362467155174
O	1.717779482939655	-12.217405249103448	-5.535617306715517
O	1.5521230929396552	-11.262450749103449	-9.163097216715519
O	-0.4265777124603448	-8.392504319103448	-10.501381106715518
O	-10.268550077060345	-1.628910739103448	2.620557013284482
O	8.989618652939654	-3.8412587891034478	15.460043493284482
O	7.869530772939655	-4.535706499103448	11.905778293284483
O	10.337069602939655	-2.041104779103448	10.363353293284481
O	1.5725044329396551	1.600564310896552	10.093359493284481
O	-3.262229507060345	-3.016788119103448	8.253058313284482
O	-3.2347710570603447	-6.6561756591034476	9.241815723284482
O	-3.8139634270603446	-10.675298549103449	3.0614577132844825
O	-5.168049117060344	-7.110366639103448	3.487287743284482
O	-3.0100086070603447	-4.069381079103448	2.4404868132844824
O	-2.4376930070603446	-1.2782904291034483	0.01589553378448255
O	-0.5304008920603449	-1.9224646391034483	-2.6537553267155176
O	1.5104963229396553	-0.31949510210344817	-5.5242150467155176
O	-0.6344782550603448	2.101657400896552	-7.513653096715517
O	-2.5832074370603446	3.050806120896552	-4.364600786715517
O	0.34119988293965514	5.338992920896552	-3.3564580567155176
O	-0.7137043000603449	8.98033554089655	-2.6907334567155177
O	-4.309017877060345	7.992605410896552	-1.9191259967155174
O	-6.281851757060345	8.347049780896551	1.2788095432844826
O	-1.3690086090603448	8.978987360896552	2.6873571332844826
O	-0.47451386216034486	5.665331980896552	1.1548947432844827
O	3.3707038229396553	5.690523680896552	1.2078139632844827
O	5.194471342939655	2.278048130896552	1.2703912132844826
O	5.595687602939655	-1.1356174191034483	2.7846532232844825
O	7.444828832939655	-4.366545379103448	2.0179107132844827
O	5.762675002939655	-6.049449759103448	-0.8676796277155174
O	2.0037248829396552	-6.125479029103448	-0.36305369971551743
O	-0.17711624806034484	-8.01398132910345	2.082407253284482
O	2.7238809929396552	-10.006346049103449	3.5482833132844824
O	4.811365282939655	-6.3111206091034475	7.049961653284483
O	1.959279602939655	-3.816728339103448	7.370694763284483
O	1.4813008429396552	-0.7207135731034482	5.2617259832844825
O	3.309693922939655	2.493833630896552	6.130671423284483
O	1.5008838029396552	5.791517780896552	5.709114913284483
O	2.435197392939655	9.459014080896551	5.8791237732844825
