82

O	5.98546814464	-4.1922136126	-3.186518952616
O	3.31315442464	-2.9385444926	-6.111858132616
O	6.30859891464	-3.3243808426	-4.248762472616
O	5.64806577464	-1.5984326325999998	-3.1150736026159995
O	5.59639478464	-3.8012026026	-5.335442062616
O	8.09483571464	-1.8177726625999997	-3.9797036126159995
O	4.38631929464	-3.0354110326	-5.206434082615999
O	8.57223898464	-3.8301963726	-3.3554549126159996
O	4.34073334464	-2.4989732526	-4.097616742615999
O	5.08636493464	-2.8928373326	-3.0878020426159996
O	7.76075878464	-3.1913596826	-4.125839822615999
O	4.90368640464	-1.1475411325999998	-2.0103341026159995
O	2.21342012464	2.3093554174	-0.4097543826159995
O	5.40290835464	-3.1938784026	-0.7447634426159995
O	3.64763997464	-0.6172047445999997	-2.5265683816159994
O	2.70840565464	2.9382877074	-2.1325928456159997
O	3.44665071464	0.5104918204000002	-1.4660376336159995
O	3.27525826464	-0.2619992315999998	-0.35313943261599956
O	4.20327617464	-1.2892156325999997	0.017727957384000348
O	4.575636594640001	-2.1783014926	-1.1010786166159996
O	2.91128913464	1.8044044774000003	-1.3509431626159996
O	2.19647811464	-2.4310106826	-5.299787312616
O	2.69414332464	-5.558505632599999	-4.043435232616
O	1.17861572264	-3.2322004626	-5.837657762616
O	4.05179781464	-5.4763283426	-3.0237824526159995
O	0.37908929864000007	-3.8444030326	-4.915704792615999
O	0.8495778226400001	-3.7322259426	-3.5690281426159993
O	2.16013006464	-3.4272446426	-3.0048405326159995
O	2.24090345464	-2.1331265826	-3.8347337826159995
O	2.89555645464	-4.811134322599999	-3.0294610326159996
O	4.27964329464	-6.5797070626	-4.053682222616
O	3.25772560464	-6.2275094326	-5.168308022615999
O	9.67713381464	-4.9669313626	9.652287907384
O	5.95775692464	-4.2089825126	9.765266307384001
O	3.4719605546400003	-2.3782746026	11.859455607384001
O	-1.3107701353599999	-7.4237702426	7.210317107384
O	1.60156178464	-10.1486737226	3.805320737384001
O	-4.82886520536	-14.0990015226	-1.7927635381159996
O	-1.16526425536	-13.143042322600001	-2.2367272636159994
O	-1.7673415053600001	-12.4161865226	-5.953076702615999
O	-4.76857746536	-10.097705322600001	-5.8671589226159995
O	-3.99377570536	-8.970556502600001	-2.2836595286159995
O	-7.554002455359999	-9.3415069226	-1.3429717386159996
O	-8.08386903536	-9.903471082600001	2.397741167384001
O	-4.63534609536	-8.6381766026	3.474122527384001
O	9.61972162464	8.926045627399999	-2.2286818266159996
O	12.92027377464	8.1767235874	-3.9880975026159993
O	15.67772847464	6.6358147374000005	-1.9456271072159996
O	-9.48049322536	5.0782292274000005	-11.590619202615999
O	-6.05344817536	5.0691249774000005	-9.967306952616
O	-5.71904965536	1.2325596974000002	-10.014542632616
O	-7.98602526536	-0.15321369359999984	-12.754111092616
O	-7.32564899536	-4.035903472599999	-8.848376422615999
O	-9.55209532536	-2.6304133726	-6.146925602615999
O	-3.81458492536	9.8311396874	0.5573636573840004
O	-2.8829687053599997	12.5630508774	-1.8512438137159997
O	2.3310587746399998	12.0997486774	1.1819303473840004
O	1.79840812464	8.3022466374	1.5189592573840003
O	2.58915403464	5.2926409774000005	3.574415477384001
O	5.40597944464	3.2658476174	2.3027226873840005
O	7.50522594464	0.4777411334000002	3.1945426973840005
O	7.8680874346400005	-0.8134887925999998	6.585197537384001
O	4.470124734640001	0.8979439244000003	7.409352547384001
O	2.76166912464	-2.3506626326	6.018105887384
O	0.4484891296400001	-3.9234628326	8.613658607384
O	0.025152061640000056	-0.6901553245999998	10.585521207384001
O	-3.02504286536	1.4151849874000002	11.295868907384001
O	-4.32327690536	-1.6993109325999998	7.419124397384001
O	-1.3881327853599998	-0.49175361259999983	5.394867007384001
O	-1.40012542536	-2.9637622526	2.484543087384001
O	-0.3614694303599999	-1.6123154825999997	-0.7133782126159995
O	0.24010431564000007	1.0796729574000001	-3.5174312826159992
O	2.71821051464	1.8898375674000003	-6.517363672615999
O	6.15955448464	3.0995888074	-5.450005882616
O	5.56924221464	5.424241937400001	-2.5903556436159993
O	4.11850998464	8.918357177399999	-2.6811591626159994
O	3.83009384464	9.0724577474	-6.451534042615999
O	-0.9390429353599998	6.4755316774	-7.077871082615999
O	-2.4653238053599997	6.660224797400001	-3.6210140126159995
O	-2.0530622953599997	4.179416097400001	-0.8153901526159995
O	-4.45074791536	1.2972742874000003	-0.6214046726159996
O	-5.43685062536	-0.2599237825999998	2.5681129973840005
