83

O	2.518194255265306	0.9535829719795919	4.258581356755102
O	2.870724935265306	1.3405308019795918	3.1352839467551017
O	2.705513095265306	2.674287251979592	2.946921686755102
O	3.507605045265306	0.5239454219795918	2.1817563167551017
O	3.487998735265306	0.9269360719795916	0.8951523457551018
O	4.070986625265306	0.11898940197959185	-0.01079632324489821
O	4.323796725265306	-1.1752773760204083	0.2894807457551018
O	4.214960265265306	-1.5798757740204081	1.5713202567551017
O	3.8790256252653057	-0.7292772210204082	2.586300156755102
O	3.869734515265306	-2.1088266030204084	-0.6420295832448983
O	4.4897881152653065	-3.370768408020408	-0.49637063224489814
O	3.9952428852653057	-2.9429610880204082	1.8249734067551018
O	4.4871350352653065	-3.743676968020408	0.8449254167551018
O	4.795646765265306	-5.1532464680204075	1.273292073755102
O	3.975316965265306	-6.197391158020409	0.6027760587551019
O	2.624565745265306	-6.4111953080204085	1.1460350257551017
O	1.590319985265306	-5.778326498020409	0.4494751769551018
O	0.28144408326530607	-6.116575548020409	0.7755390147551018
O	-0.034488250734693915	-6.900850738020408	1.8817483267551018
O	0.9582332252653061	-6.797951108020408	2.8515637767551016
O	2.297895715265306	-6.656631438020408	2.4755766667551016
O	4.802686345265306	-7.4017715780204085	0.4559123511551018
O	4.616691565265306	-8.341438008020408	1.2866590567551017
O	5.769075175265306	-7.603544818020408	-0.5023905832448983
O	-1.382747962734694	-6.843431508020409	2.2695045967551017
O	-2.308665524734694	-7.016999838020409	1.1925739577551018
O	-3.613545264734694	-6.4569185680204075	1.6288680767551018
O	-4.288166754734694	-8.561514738020408	2.4997724067551017
O	-2.880439174734694	-8.828869748020407	2.501711416755102
O	-2.463182534734694	-8.484777168020408	1.0722948987551018
O	-4.6250331847346935	-8.554213698020408	3.878870306755102
O	-5.677157314734694	-7.5149398880204075	3.9970824367551017
O	-5.322274234734694	-9.749067418020408	4.449274726755101
O	-4.730636294734694	-7.435055048020407	1.7430718667551017
O	11.880064645265307	-0.45695025302040815	-9.222198993244898
O	8.618366925265306	1.521072701979592	-9.180403683244899
O	0.38419801326530606	0.26365607197959173	-10.371257173244897
O	1.6038465452653061	-4.864694438020408	-9.503179563244899
O	-6.498363424734694	-9.182057918020408	-8.652748113244899
O	-3.0460399147346937	-9.926496618020408	-7.247691773244898
O	-4.543448794734694	-11.54996053802041	-4.148667143244898
O	-7.061968564734694	-8.936282878020409	-3.0418788032448982
O	-5.056362374734694	-6.111925548020409	-4.6446284532448985
O	-8.221656354734694	-4.643164948020408	-6.080072003244898
O	-7.752642144734694	-2.4805438680204084	-9.189124243244898
O	-3.971198404734694	-2.017854317020408	-8.674297613244898
O	10.910786445265305	2.089687241979592	8.747650576755102
O	13.388424045265307	-0.5256905380204082	9.915404416755102
O	-10.316948964734694	-0.39686618902040816	11.097473526755103
O	-6.632198434734694	-0.6605143950204082	10.179274296755102
O	-7.089653004734694	-3.3984131080204083	7.542396516755102
O	-10.474774154734694	-5.082083208020409	8.353308206755102
O	-12.176984754734693	-6.707888578020409	5.3529191267551015
O	-9.490901744734694	-5.566949988020408	2.923426006755102
O	-10.247012554734694	-2.2315200100204082	1.7734557667551019
O	-0.7383807227346939	8.94231236197959	6.091223696755102
O	-0.0953179467346939	9.047682261979592	9.796753086755102
O	4.6162363952653065	6.686783611979591	4.867567796755102
O	5.493736215265306	5.522686871979591	1.4013788867551018
O	7.274994245265306	2.076320691979592	1.2044056037551019
O	8.695051555265307	-0.4035738870204082	-1.1156905932448982
O	10.029987145265306	1.098037841979592	-4.335177513244898
O	7.468918755265306	3.9366748419795914	-4.055166053244898
O	4.822866095265306	1.685974871979592	-5.568263473244898
O	3.151559045265306	2.9811920819795916	-8.770214073244897
O	4.012631575265306	6.578370151979591	-7.911101943244898
O	1.7383827152653062	9.53224596197959	-7.2919139132448985
O	-1.2734310517346938	5.380029491979592	-6.796438973244898
O	1.100560725265306	3.952296371979592	-4.232494613244898
O	-0.15248316673469392	0.3343115619795918	-3.8086479832448985
O	0.3053317332653061	-1.3512853674204082	-0.49244447924489815
O	0.4650705992653061	-1.3159373626204083	3.2453036767551016
O	1.8670292552653063	-3.333427318020408	6.070071376755101
O	5.591026555265306	-2.891276908020408	6.548102676755102
O	6.400937915265306	0.8286001819795916	6.303668126755102
O	5.610899205265306	3.6998468219795915	8.592828576755101
O	4.249187035265306	1.4310621719795917	11.352005326755101
O	-0.8485884747346939	0.7740165519795918	9.530484496755102
O	-1.333888778734694	3.6472542719795915	7.083038406755102
O	-0.6176878697346939	3.425165551979592	3.374930286755102
O	-3.133139894734694	2.1110417519795917	0.9957612847551018
O	-3.507949284734694	3.637951741979592	-2.423499313244898
O	-5.399072604734694	2.8510841419795914	-5.585631263244898
