79

O	2.999086157469259	-2.5887996179814814	3.5481426319444447
O	4.8487757674692595	0.5391939390185188	2.738756151944445
O	4.069748487469259	1.3961817720185188	2.0039650419444452
O	6.17403167746926	0.5891645710185187	2.032137151944445
O	7.02968441746926	1.2042558220185187	2.908494541944445
O	6.767722277469259	-0.7475379979814814	1.688160361944445
O	6.91693250746926	-1.5146879079814812	2.997121051944445
O	5.4840877574692595	-1.7027559579814813	3.5058007119444454
O	4.492658657469259	-0.8897153179814812	2.739166261944445
O	0.39486507206925936	-4.968015807981481	2.066600711944445
O	8.06292869746926	3.0020367520185185	1.853524281944445
O	-1.910399512530741	-6.017092157981481	1.944462691944445
O	-0.1336509995307406	-4.023808087981481	1.0256788519444449
O	6.92485502746926	2.5550139520185184	2.7147334019444447
O	-0.3442517375307406	-6.529894537981481	3.691130381944445
O	0.16353461946925935	-2.6602578679814814	1.566603951944445
O	6.9600671374692595	3.3408306720185186	3.9716322219444447
O	2.2705946874692593	-1.2474435579814813	1.6601598219444451
O	1.6343805374692593	-2.5141797579814815	1.570923401944445
O	7.825600097469259	4.516446512018519	3.623787951944445
O	2.1584915374692595	-3.3824025079814817	2.6501444319444447
O	8.130488547469259	4.471237902018519	2.155806171944445
O	1.1506349264692595	-4.321359357981481	3.1823218819444454
O	-0.7278085725307406	-5.723262237981481	2.607069661944445
O	3.0828323374692594	-1.2633139079814812	2.8211078419444453
O	-8.16675067253074	-1.7283668079814813	7.314302471944445
O	-11.806238142530741	-2.7859521579814817	7.528772921944444
O	-4.0437300925307404	10.711767512018518	-6.036081328055555
O	-2.0375108025307407	11.34516031201852	-2.8992712280555546
O	1.7705815174692594	11.514219812018519	-3.250724028055555
O	2.849427127469259	14.585281512018518	4.327991661944445
O	0.9531719054692593	11.830508212018518	2.5115779019444453
O	3.2706348774692593	8.85620272201852	1.864021341944445
O	1.7833080574692592	6.776363732018519	-0.9896011180555551
O	-1.1452195125307407	6.631690722018519	-3.340087138055555
O	-1.2745916325307407	6.620536322018519	-7.110954108055555
O	2.2131734074692595	4.201200962018519	-8.567436268055555
O	4.546449257469259	1.6518344820185187	-6.983650588055555
O	8.32056138746926	1.6713904220185187	-7.626016528055555
O	8.87736893746926	1.2324843420185188	-3.8963353680555555
O	7.27823073746926	4.673850192018519	-3.394624858055555
O	12.10599415746926	-3.4304970479814814	-10.585729448055556
O	9.53962738746926	-6.829546597981481	-5.181201258055555
O	9.06174103746926	-7.92971807798148	-8.791345258055555
O	7.879266227469259	-5.183365767981481	-11.184262348055555
O	6.72887891746926	-2.8204991079814814	-8.383746908055555
O	5.453121147469259	-0.10865674998148134	-10.724126848055555
O	-8.636065142530741	2.8587109620185185	-1.870342748055555
O	-6.184655192530741	5.032791762018519	0.038265827944445
O	-3.0858404925307408	4.414528052018519	4.685004611944445
O	-3.2477283625307405	3.0049598820185186	8.204495801944445
O	-6.746501462530741	1.7944694320185188	9.187437211944445
O	-5.754199762530741	-0.5020926109814814	12.051704951944444
O	-4.403686662530741	-4.0911706979814815	11.993792451944445
O	-1.3565629225307407	-0.03884823298148132	16.091172551944446
O	-1.7908521525307406	2.9740718820185186	13.893789051944445
O	-12.49546314253074	-1.5094483179814813	0.398852740944445
O	3.4051964174692593	-16.63419488798148	0.302842350944445
O	-6.84988401253074	-5.259552917981481	3.654222651944445
O	-4.773113332530741	-2.3916482279814817	2.350713961944445
O	-1.9418023625307406	-1.2292927779814813	4.571135701944445
O	1.1517684644692594	1.1074809730185187	4.871944141944445
O	0.41435511012925935	4.419262492018519	3.2257201519444454
O	-1.9648616825307408	2.7947272120185187	0.695497835944445
O	1.0487728604692594	1.6392908120185188	-1.355924408055555
O	1.0843194924692594	2.7760655420185185	-4.934800218055555
O	-2.6821263225307406	3.2468254620185184	-4.969445638055555
O	-1.1685483325307406	-1.3807540279814812	-7.533070628055555
O	-0.9003393025307407	-1.6876968079814814	-3.7312463980555552
O	2.505323017469259	-3.3088078279814814	-3.3237405380555547
O	3.1215105074692593	-5.5488062479814815	-0.31493753605555497
O	1.7978086474692594	-7.993078487981482	2.2306370919444447
O	2.6564711874692595	-9.269980857981482	5.670166261944445
O	1.6147670874692592	-6.833985337981481	8.330682211944445
O	-1.8996188025307408	-5.659360867981481	7.530544181944445
O	-3.750291432530741	-11.27490938798148	1.927088031944445
O	-2.546731062530741	-8.166822347981482	0.12676280694444503
O	-0.1930474245307407	-8.53199429798148	-2.8064073180555553
O	-0.5858686595307407	-6.236628237981481	-5.794028828055556
