75

O	1.9480332435190477	-2.549309240333333	3.1189809288968258
O	1.9586147735190473	-3.774671520333333	2.6241981988968255
O	3.7454947635190474	0.2933385296666669	-0.6317450091031745
O	3.3269940235190476	0.760116746666667	-1.7014040311031744
O	3.9550798635190474	0.10204393766666692	-2.6736141611031745
O	2.0578119135190476	1.1720385536666669	-1.8495442311031745
O	2.4424922435190477	-1.9221549003333331	1.9082786288968256
O	3.2037613535190475	-0.913165750333333	-0.3298562841031745
O	1.4733682135190476	-1.5291806503333332	1.0938584688968256
O	3.4917279035190476	-2.478722920333333	1.3146417888968256
O	1.9130448535190476	-0.7798455133333331	0.0693063001968255
O	3.968083393519047	-1.868284370333333	0.2010248118968255
O	-3.2032563864809522	-3.055524280333333	-7.454688921103175
O	-5.511895016480953	-1.408435190333333	-9.999911221103174
O	-4.2145775164809525	-13.947281750333332	5.592127628896825
O	-1.1948773944809523	-11.740253250333332	6.412805068896825
O	-2.4708759964809524	-8.211296610333333	7.144561988896825
O	-5.612295056480953	-6.136670460333334	7.262461938896825
O	-0.0884457734809525	-1.6018694703333332	11.638711078896826
O	4.706430353519048	-3.9456551303333334	11.550561078896825
O	8.596852273519048	3.164010109666667	10.354841678896825
O	4.218409433519048	5.350297049666667	14.562981178896825
O	3.2540852435190475	2.237909949666667	12.515852978896826
O	-8.464015436480953	1.768678529666667	0.5946100558968255
O	-9.219812706480951	-1.9482992603333331	0.7912831518968255
O	-7.595082826480953	-5.321881640333333	1.3598790488968255
O	-6.6548135964809525	-8.818534420333332	0.2592223948968255
O	-3.0680963264809527	-7.965974330333334	-0.6670636601031745
O	-1.1876139964809524	-8.564183310333332	-3.8886092311031746
O	-3.0402939664809523	-7.263670570333334	-6.977691421103175
O	-0.05469523548095245	-7.1097723403333335	-9.317171571103176
O	2.7021915735190474	-4.4858673903333335	-9.633610941103175
O	5.116946743519048	-7.091915410333334	-10.958314921103176
O	4.797753683519048	-10.638331650333333	-9.748790101103175
O	2.1468815935190477	-11.848962050333332	-7.4071512511031745
O	-9.413380176480953	1.412748999666667	-4.493598391103175
O	-10.483103506480951	5.077305769666666	-4.479830551103174
O	4.9887607135190475	13.012945449666667	-0.46729369010317445
O	9.564989773519049	14.768404349666667	-2.8662980111031744
O	8.716842023519048	11.124205449666668	-3.5099623111031746
O	10.507913373519049	9.875770969666668	-0.3651213871031745
O	2.7975938835190477	9.567649069666667	7.691210998896826
O	1.0682545835190476	9.587155739666667	0.9905644758968255
O	-1.9633392364809525	8.578526879666667	-1.0439825611031743
O	-2.4399001164809526	7.270656539666667	-4.552160491103175
O	-1.4322825384809525	7.9009782096666665	-8.140059071103174
O	-0.7671804391809525	1.363770089666667	-11.591394821103174
O	-3.0716050064809526	2.038376249666667	-8.616528461103174
O	-1.8777087564809525	1.4122732696666669	-5.067181831103174
O	-2.0613070764809525	-0.781909309333333	-2.0029933811031744
O	0.5151418835190475	-3.548603120333333	-1.6845929311031744
O	1.9201594735190475	-6.195079620333334	0.4995098248968255
O	-0.8363490214809525	-8.080002570333333	2.3880957788968256
O	-2.9662712464809524	-4.870643860333334	2.4994497588968256
O	-0.7615485224809524	-3.627239420333333	5.375475108896826
O	-2.6378673164809525	-2.707671420333333	8.524268898896825
O	-5.862699116480952	-2.127287510333333	6.5980106588968255
O	-7.968119766480953	0.993942014666667	6.245822438896825
O	-7.784384466480953	4.272003989666667	4.453227978896825
O	-3.3780680964809524	2.596308259666667	7.924705288896825
O	-1.5856923074809526	0.8141807986666669	5.021533788896825
O	2.0654073735190477	0.9913946646666669	6.068616878896825
O	4.708223133519047	1.031458797666667	3.3930042188968255
O	5.933451423519047	2.244616259666667	0.0721242893968255
O	8.405756333519047	1.200675299666667	-2.5325445411031744
O	7.312406173519047	-1.8504153803333332	-4.314009691103175
O	3.715759033519048	-1.561479570333333	-5.446068751103175
O	2.0349854635190474	0.734866522666667	-7.945865521103175
O	5.326356163519048	2.1412853296666667	-9.284279761103175
O	6.305874143519048	6.003796439666666	-5.5394984311031745
O	2.8730228235190474	6.431156629666667	-3.8960528511031742
O	1.7226704035190474	4.4105663496666665	-0.8882931571031745
O	2.6369575835190475	5.664927039666667	2.5529201388968255
O	0.12043493751904755	5.4599018096666665	5.339141638896825
O	0.09094234851904759	5.9519674196666665	9.103032398896826
