28

O	24.12873015890468	18.231733124919863	32.777608350323
O	24.785496943589038	18.917139896792968	33.84328060006704
O	22.720955742332755	18.732339533379445	32.84524290257893
O	22.649359265643163	19.704982784948925	33.98645527489176
O	24.09361110620074	20.201494310809245	33.9255745848642
O	26.876464317666915	19.73667327689406	34.98059276593199
O	24.789220198275604	18.74276627447566	31.52391033005489
O	26.143878374230972	18.654237611170807	34.22270891915517
O	29.81731282976309	15.259098742603358	27.999289386844232
O	25.889427960207836	20.074123308136844	35.87168465847833
O	25.070525831721287	19.945889534346396	31.350853156970583
O	24.768514190082065	17.814521501950168	30.464961957423768
O	25.156032189971917	18.258536333830897	29.16235398282746
O	26.415956083795024	17.576330329054727	28.842903388602423
O	27.55511557194678	17.919187823596054	29.49053988135494
O	28.72730294423271	17.26804906165067	29.07727802497961
O	28.746845686441496	16.03649313257112	28.51541600710825
O	27.537777077506746	15.666661819868597	28.078020899311845
O	26.39688126426641	16.246283846246545	28.556963351511445
O	26.296639607767823	17.579095008213525	34.88280666721619
O	25.584553428898705	19.334041827225665	36.94466373560424
O	24.140011251714462	18.986933638513484	36.9244600224201
O	23.873791160049826	17.48488359855408	36.963000526448695
O	29.856593368856238	14.132884347388217	27.446788135033884
O	24.57519706521228	17.04013879552484	38.20868083964924
O	31.111763890937738	15.691314576949887	28.054538804557552
O	26.03503090939347	17.0134769120375	37.93837035869225
O	26.495558117659254	18.40254522519958	37.60504436254131
