81

O	-3.741549044754386	-4.00364696991228	-1.888513788319298
O	-2.971868564754386	-3.388392599912281	-0.9250916233192978
O	-4.698535404754386	-5.041610969912281	-1.3079272029192979
O	-5.550035794754386	-5.64210062991228	-2.3467004293192977
O	-5.015816174754386	-5.22968183991228	-3.6743156893192976
O	-3.695656274754386	-5.716760739912281	-3.732386459319298
O	-5.198151604754386	-3.742856589912281	-3.7703859893192977
O	-4.394962154754387	-3.0126566399122807	-2.760385379319298
O	-1.7962519150543863	2.4222869100877196	-2.1589063563192976
O	-0.6648065347543863	4.78667676008772	-2.186940719319298
O	-0.9771299527543863	1.4429856160877195	-1.3944908783192977
O	-2.0683563327543864	4.78064674008772	-2.772916859319298
O	-1.8400266561543863	0.3166678120877194	-0.9545232733192979
O	-3.2737832447543864	-5.57235217991228	-4.954002939319298
O	-3.588538884754386	-1.3495946999122808	-1.456730305319298
O	-2.6165171237543863	-0.41291511091228056	-1.9415374503192977
O	-4.193368244754386	-0.45186049291228064	-3.3583132693192974
O	-3.532466204754386	0.5717387756877194	-2.608113139319298
O	-2.7468514547543865	1.7257863200877193	-3.0405931693192976
O	-1.5496425617543863	3.8358542400877194	-1.8872708093192978
O	-4.456784244754386	-1.5875667599122805	-2.5490830193192977
O	-3.316110684754386	-4.10228174991228	-5.052498829319298
O	-2.007594694754386	-5.77800152991228	-5.4198429993192985
O	-3.9571551047543863	-5.5368794799122805	-6.174351269319298
O	6.783437405245614	3.8392674500877195	-7.067703269319298
O	7.526289105245613	-11.39615613991228	1.8794419706807022
O	4.665491485245614	-12.64367783991228	-3.474525739319298
O	1.3954113352456137	-11.01488403991228	-2.449528129319298
O	2.034889895245614	-8.754898369912281	0.5643969706807022
O	4.7850753352456135	-7.56240662991228	2.863845600680702
O	5.148784095245614	-7.82449975991228	6.624037300680702
O	7.526535155245615	-6.90310437991228	9.442900020680701
O	-2.2698601957543865	-5.85998949991228	7.055331170680702
O	-6.531945564754386	-7.04362550991228	3.963616520680702
O	-3.6792711347543863	-9.41886770991228	3.138906340680702
O	-10.972210564754386	-4.877663629912281	11.333560520680702
O	-13.068687894754387	-4.38497138991228	5.288320660680702
O	-10.465480394754387	-0.21348097091228063	6.365945920680702
O	-10.240143404754386	0.6732679650877194	10.049223620680701
O	-7.868007294754387	-1.5204934599122808	12.094922620680702
O	-6.011990084754387	-2.9064965599122807	9.033622220680702
O	-3.5598074647543863	-5.00190567991228	11.027357920680702
O	8.811173605245614	2.4233857100877194	3.4008637806807016
O	9.851036105245614	-0.7641260399122807	1.620692950680702
O	8.493023305245615	-3.6510551799122806	-0.4275136103192978
O	5.1101966652456134	-4.04665106991228	-4.908808579319298
O	4.3228836252456135	-2.473488169912281	-8.280128389319298
O	6.8543236152456135	0.1786420610877194	-9.240663749319298
O	4.798364355245614	1.9912543500877193	-11.846151579319297
O	2.104701185245614	4.67618639008772	-11.409665779319297
O	0.4647114252456137	3.5868203000877195	-14.661774679319299
O	0.7611663352456137	0.011615017087719393	-15.776682079319299
O	2.5737622652456134	-2.6634370199122808	-13.881310779319298
O	-6.975116414754386	14.24711486008772	0.5839424006807021
O	-9.533886734754386	11.61947536008772	1.6780273406807023
O	-9.407091044754386	8.813247540087719	7.725031170680701
O	4.113409285245614	10.46992505008772	0.8993277306807024
O	6.5658629352456135	8.59811009008772	-4.938479359319298
O	4.241830405245614	6.1651390700877196	-3.057983219319298
O	3.7620543652456133	2.6467427300877193	-1.9437667803192977
O	1.5495726552456137	0.5946082080877194	-4.152615459319298
O	-0.0009994747543862204	-2.770027919912281	-4.600073329319298
O	2.0574286352456137	-5.67243090991228	-3.358359049319298
O	3.7373266952456135	-3.4016908399122805	-0.7221712453192979
O	0.6753894152456139	-3.864019159912281	1.537222850680702
O	1.2646639952456136	-5.18627676991228	4.941189100680702
O	4.902016415245614	-3.988742409912281	4.8545615306807015
O	1.7096361552456139	-0.6739175399122808	7.925754180680702
O	1.1397528452456136	-0.16487155391228064	4.203382770680702
O	-2.6835404847543862	-0.1672109909122806	4.037625770680702
O	-4.366062924754386	1.9253430200877193	1.2832189406807022
O	-4.572016094754386	4.66908716008772	-1.1685772801192977
O	-5.890912114754387	5.86995411008772	-4.373314419319298
O	-4.143750794754386	4.34280874008772	-7.238319549319298
O	-0.4552984247543863	4.72530523008772	-6.783309019319298
O	1.7238991152456138	7.83771948008772	-6.835862019319298
O	-3.5802601147543864	11.02591106008772	-3.188448079319298
O	-0.9313983597543862	10.04211201008772	-0.6739580193192979
O	-0.6463773047543862	6.51912588008772	0.6409777906807022
O	-2.5527533717543864	5.72232758008772	3.7938658106807015
O	-1.0472315607543863	3.6005707200877195	6.608579690680702
