81

O	-4.2109861024285715	0.47434906341214383	-2.502290170869642
O	-3.2846854824285714	0.5044174286321439	-1.508377294869642
O	-5.492312262428571	0.9372508317321439	-1.888425854869642
O	-6.290623282428571	-0.3165326562678562	-1.5722775348696418
O	-6.909672552428571	-0.8180448002678561	-2.8261173908696415
O	-5.786878462428572	-1.164161860267856	-3.759233920869642
O	-4.500630772428572	-0.720362250267856	-3.2673330308696418
O	-1.1336193794285716	-5.1772151102678565	-1.6879437398696417
O	-6.121020452428571	1.5087989997321438	-3.106786380869642
O	0.7242583875714286	-6.703238370267856	-0.9141214208696418
O	-0.6517268324285714	-3.900423130267856	-1.186048255969642
O	-5.590850282428571	2.8123380497321437	-3.432035020869642
O	-0.45411062242857136	-7.113995540267856	-2.791219740869642
O	-1.8399737754285714	-3.1000435102678563	-0.7500527088696418
O	-5.856384102428572	3.8155164297321438	-2.383985920869642
O	-4.092345132428571	-2.3177195602678564	-1.5527010498696419
O	-3.1233546224285718	-3.3544251602678563	-1.4201401478696418
O	-7.338941522428572	3.9523293997321436	-2.367290220869642
O	-3.427759572428571	-2.783720150267856	-3.5223992708696414
O	-2.5414781094285717	-3.553726450267856	-2.7830397608696416
O	-7.749469812428572	2.6379876997321436	-1.8225653188696418
O	-2.0849250214285715	-4.933541080267856	-2.8105850108696417
O	-7.5299108324285715	1.5965380197321437	-2.824191180869642
O	0.0026453075714285568	-6.075182280267856	-1.9277333658696418
O	-3.5259648624285713	-1.640844850267856	-2.660773900869642
O	7.546509607571428	-3.8038738502678564	-8.041134570869643
O	5.649357577571429	11.002181709732143	3.2442964191303583
O	3.394968137571429	11.285580009732143	0.21691953913035822
O	-0.34075861242857153	11.833421809732144	0.866729729130358
O	-2.2774895574285714	13.536636409732143	-6.985014360869641
O	-0.14326587242857136	11.118904409732144	-4.9121203708696415
O	-2.5577634374285716	8.471917079732144	-3.535763790869642
O	-0.7825642324285715	6.884167699732144	-0.4927503078696418
O	2.3009266475714285	6.805712459732144	1.575874259130358
O	2.7235124475714287	7.362673079732144	5.237612889130358
O	1.0045312475714288	6.910295889732144	10.457461099130358
O	-0.7645146424285714	5.540858579732144	7.3615606191303575
O	-3.4100505124285716	2.984129279732144	6.463007789130359
O	-7.066669332428571	3.522955109732144	7.482298729130359
O	-8.085419782428572	2.5652884497321438	4.108875979130358
O	-6.288428272428572	5.617776709732143	2.6332089191303583
O	-10.944469022428573	-0.6936839102678561	11.539168699130357
O	-13.216192322428572	-2.1599428802678564	5.668531519130358
O	-9.262052352428572	-5.096830760267856	6.531010609130359
O	-8.492905452428571	-5.683528970267856	10.222137799130358
O	-6.8337210424285715	-2.736972950267856	12.032867899130357
O	-5.8129103124285715	-0.9576182002678563	8.769038899130358
O	-4.069556722428572	1.9372958697321438	10.490438499130358
O	9.500895677571428	-1.079648240267856	2.1398329391303585
O	9.228691277571428	2.1466137797321436	0.14600889913035808
O	6.797629597571428	4.212873529732144	-1.8959644748696418
O	3.236473657571428	3.165702179732144	-6.0933398908696415
O	2.9691955675714286	1.1888086637321438	-9.328639010869642
O	6.232231857571428	-0.5012579622678561	-10.363864160869642
O	4.771721147571428	-3.130636490267856	-12.697183500869642
O	3.1860697175714283	-6.535332810267856	-11.940485300869643
O	0.10264056757142859	-2.9217645202678564	-16.417841900869643
O	1.0291507775714286	0.35288507773214384	-14.825771900869643
O	12.524642477571428	-2.895182800267856	-1.6304959678696418
O	-4.603454042428572	-16.185004590267855	2.199896819130358
O	6.267839137571428	-6.593518850267857	-3.7298476108696414
O	4.613432507571428	-3.3491090602678564	-2.7637718508696416
O	1.7467765375714284	-2.3366378402678563	-4.922126390869642
O	-1.0238304584285713	0.2601475047321439	-5.488434470869642
O	-0.17329365242857153	3.683168059732144	-4.357475870869642
O	2.3253846875714284	2.272760379732144	-1.820450431869642
O	-0.5238871424285714	1.801061929732144	0.6437316291303581
O	-0.16516062242857155	3.4500421797321437	3.915787119130359
O	3.6208949575714287	3.5607398997321438	3.572409159130358
O	2.069572507571429	-0.4019448102678561	7.057305829130358
O	1.4608690275714284	-1.308752080267856	3.4247679391303585
O	-2.1274100774285714	-2.6228201202678565	3.614517559130358
O	-3.2279318924285714	-5.348224560267856	1.1824529291303583
O	-2.5439113014285715	-8.125871060267857	-1.2206465271696418
O	-3.8094335824285714	-9.804109390267856	-4.3184695908696416
O	-2.6220680764285715	-8.082646680267857	-7.399082010869642
O	1.0521115775714285	-7.179729910267857	-7.073952040869641
O	2.820415897571429	-11.929800690267856	-0.8151326268696418
O	2.0602207575714284	-8.459167780267856	0.4925080791303582
O	0.015150217571428426	-8.113968030267856	3.6477899791303585
O	0.9172965275714287	-5.4370179402678565	6.131710159130359
