82

O	0.17006301381458266	-1.385316363791667	-4.812654174266668
O	0.7542761238145825	-0.5045644537916668	-4.170706014266668
O	2.075537233814582	-0.764581633791667	-4.102398814266667
O	0.26259189381458237	0.809286998208333	-3.975383974266668
O	0.8531580838145829	1.562406684208333	-3.0207302942666683
O	0.20388755381458257	2.721381926208333	-2.720045574266668
O	-1.1826528361854176	2.564358416208333	-2.719222334266668
O	-1.6828636461854176	2.0626620962083333	-3.847672214266668
O	-0.9991966561854175	1.051397105208333	-4.464860934266667
O	-1.9106660061854175	3.317574276208333	-1.889335561266668
O	-3.1250298308854174	3.888273996208333	-2.2900342942666683
O	-3.0839250978854174	2.179809796208333	-3.908872424266668
O	-3.4340720061854175	3.446971336208333	-3.559694794266668
O	-4.824070836185418	3.836102566208333	-4.057331034266668
O	-5.812593056185417	4.100689266208334	-2.959985544266668
O	-6.2799972661854175	2.7900016462083332	-2.473728894266668
O	-6.649812186185418	1.730353834208333	-3.289536284266668
O	-7.349845886185417	0.7188655822083331	-2.634116104266668
O	-6.968730406185418	0.42510935020833307	-1.372948885266668
O	-6.4211396161854175	1.402960316208333	-0.607932213266668
O	-5.694327226185417	2.3899523362083333	-1.2675843442666679
O	-6.819170496185418	5.004684526208333	-3.509390924266668
O	-7.855074936185417	4.491731076208334	-4.030497074266668
O	-6.771975216185417	6.377656706208333	-3.431380744266668
O	-7.2490500761854175	-0.749724833791667	-0.687246313266668
O	-8.513141206185418	-0.518748163791667	-0.004276314266667969
O	-9.350362466185418	-1.395829273791667	-0.861411329266668
O	-9.079751666185418	-2.855889033791667	0.9356228457333322
O	-7.762148266185417	-2.324872573791667	1.3351954457333322
O	-8.103814216185418	-0.866545003791667	1.3698190557333318
O	-9.229411016185418	-4.092794043791667	1.5471609757333322
O	-10.020357006185417	-4.196476143791667	2.526511245733332
O	-8.513840586185417	-5.229279753791667	0.865426195733332
O	-9.250844586185417	-2.842597863791667	-0.523554480266668
O	1.8619583138145823	14.618923976208333	-1.115570960466668
O	3.5223248538145824	11.865227976208333	0.9418882657333318
O	1.8354985438145826	6.836940336208333	7.476801715733332
O	-3.2228250509854175	8.096883726208333	6.381522775733332
O	-8.382713566185418	2.321059696208333	11.403642185733332
O	-9.040322816185418	4.066116476208333	8.090598545733332
O	-11.262501466185418	1.2017934042083331	6.912701325733332
O	-9.089133866185417	-1.8293798237916672	7.627297955733333
O	-5.880725526185417	0.2608261662083331	7.275264665733333
O	-4.506804386185418	-1.4237505537916668	10.357920785733333
O	-1.8468441761854175	0.568927276208333	12.195857785733333
O	-1.0811307261854175	2.945285886208333	9.304172885733333
O	1.4166903538145825	1.595411057208333	-13.868163014266667
O	-1.1212635661854176	3.089926876208333	-16.24612031426667
O	-3.1098161014854173	-15.093228623791665	-0.961128827266668
O	-2.8683250041854174	-11.766235323791667	-2.7993703242666683
O	-5.190613776185417	-9.913486523791667	-0.392920430266668
O	-7.369681776185418	-12.558653523791667	1.357522645733332
O	-6.872517006185418	-8.170476103791668	4.730392805733333
O	-3.4408565301854175	-8.558867393791667	5.925288695733332
O	7.531620673814581	-6.302831943791667	-4.439348784266668
O	7.093793073814583	-8.302715623791666	-7.594308824266667
O	5.981646063814582	-1.1945248437916671	-7.027517654266669
O	5.412442103814582	1.921906916208333	-4.992264034266668
O	2.3391247738145826	3.964396796208333	-5.879613394266668
O	0.3776924738145824	6.964693136208333	-4.978902904266668
O	2.4299710838145825	9.777585146208333	-3.549279844266668
O	4.951777063814582	7.219281006208333	-2.2094018642666677
O	2.7679198238145823	6.680269116208333	0.841536025733332
O	4.469020473814583	7.350211226208333	4.2542727257333315
O	7.916603273814582	6.782320016208333	2.785489735733332
O	10.514316473814581	4.185824726208333	3.6670280757333322
O	6.104131063814583	2.3830340862083332	5.611830525733332
O	4.478660043814582	2.675106306208333	2.239040365733332
O	0.7306604138145825	2.154898436208333	2.940908895733332
O	-1.5087309761854175	0.5280011952083331	0.36614084573333194
O	-2.0160884261854175	-1.862105903791667	-2.499185014266668
O	-4.320368856185418	-2.331995883791667	-5.369487614266667
O	-3.6189511771854175	-0.004453647791666904	-8.365071924266667
O	0.14696447381458233	0.1450796942083331	-8.933054774266669
O	2.5237991538145823	-2.442912913791667	-10.247325364266668
O	-0.25506101618541743	-4.884005193791667	-11.218211514266667
O	-1.0510360261854177	-7.288111233791668	-6.379233464266669
O	2.112832883814583	-6.492149513791667	-4.430605134266668
O	2.577365763814582	-3.4980190137916667	-2.176507484266668
O	1.4332248438145823	-3.5015360737916668	1.3340070757333322
O	3.4619256338145825	-1.808811573791667	3.996633995733332
O	3.064348123814583	-0.9716794237916669	7.654832155733333
