80

O	-4.390271545898464	1.510701425396923	-1.6188326120353846
O	-0.9287751908984635	0.577413706796923	-2.3666888220353846
O	-2.1744964648984633	0.8715790733969231	-1.8056401620353846
O	-3.2395773858984636	1.3455793273969232	-2.460331642035385
O	-2.907133705898463	1.8458885773969231	-3.6729793420353847
O	-1.6177713318984634	1.6773759573969231	-4.242745062035385
O	-0.6028011688984635	1.031553684396923	-3.6111931120353846
O	3.569894534101537	1.684156297396923	-5.377343992035384
O	2.9876521541015366	0.656729520396923	-4.873188792035385
O	-4.633949845898464	0.7983025353969231	-0.5900224383353847
O	3.618252874101536	-0.4345754626030769	-5.494509872035384
O	1.5420237441015363	0.8581888293969231	-5.062996352035385
O	-5.322360755898464	2.506473437396923	-1.9401118220353846
O	1.5720620541015364	0.8135883603969231	-6.479883342035384
O	0.4055771941015365	0.36021263539692305	-4.393146602035385
O	-1.2880677384984636	8.068590587396923	5.119908477964615
O	-2.3504901858984635	8.973008087396924	8.646343587964614
O	10.130007834101537	-4.941966192603077	6.8200699379646155
O	12.616137334101536	-2.0707318026030768	1.0686996979646153
O	15.280735934101537	4.169435317396923	-5.239608442035385
O	12.648441434101537	2.5697093373969233	-3.013139882035385
O	9.723219334101536	1.165452554396923	-5.0829602520353845
O	7.934644904101537	-1.479565282603077	-2.9636123320353844
O	7.964043484101536	-3.119531252603077	0.3975740669646153
O	8.310688114101536	-6.759495982603077	1.3331790979646154
O	8.469154414101537	-9.014417912603076	4.376127467964616
O	5.998766944101536	-9.133860042603079	-1.6981812220353847
O	3.2950193041015368	-8.339791252603078	-4.245886552035385
O	3.347536554101536	-9.789266092603079	-7.784055832035384
O	2.6155070241015363	-6.360511542603077	-9.162741592035385
O	6.040878994101536	-5.258997102603077	-7.786930872035384
O	-5.372471845898463	-8.468216852603078	-9.290852302035386
O	-3.1549701758984634	-13.749415392603076	-6.384172162035385
O	-1.0456563828984635	-10.558429492603079	-5.966843602035384
O	1.8663165841015363	-12.312402592603078	-4.268051402035384
O	0.7759965141015366	-1.9868381126030767	8.231377417964614
O	4.105591364101537	-0.349536872603077	7.431847147964616
O	6.078490104101537	1.151498215396923	4.566326247964615
O	7.846304744101536	4.0277457173969236	2.861526617964615
O	4.998407004101536	4.910013217396923	0.5078780279646153
O	3.296591774101537	8.256410027396923	0.0054748729646153516
O	2.0425282041015365	9.887074317396923	3.247422147964615
O	-0.5171655278984635	12.248464907396922	1.7055128179646155
O	-4.084018535898464	11.576141807396922	0.46284394796461537
O	-3.8081189558984634	14.416935207396921	-2.0324983320353844
O	-0.43940875489846354	15.245588307396922	-3.494035792035385
O	2.7507163841015365	13.487489307396924	-2.6154893920353848
O	5.220284494101536	13.270332807396922	0.18098853396461534
O	-0.4052025548984636	2.3144195573969233	10.837496417964614
O	-15.177012065898463	-4.951548252603077	1.6387895179646155
O	-15.644685165898464	-2.612655482603077	-4.215804772035384
O	-9.969064945898463	-4.968874682603077	3.0463810779646154
O	-8.398128435898464	-3.160622192603077	5.963722837964616
O	-8.483542525898464	0.38854393739692306	7.195515007964616
O	-5.703834705898464	6.392887337396923	7.316361307964615
O	-4.477983935898464	3.920460347396923	4.6953687879646155
O	-1.5258742258984634	2.4343289573969233	2.8448444979646155
O	-0.6172733638984635	4.072647777396924	-0.4095475500353847
O	1.6435120841015363	3.890010617396923	-3.478774142035385
O	5.1555173041015365	2.726866077396923	-2.5075061220353847
O	3.7606102941015367	0.6446003835969231	0.3669698749646153
O	2.7947113141015363	-2.113516642603077	-2.075963752035385
O	4.273153414101537	-5.518857902603077	-1.3207415280353847
O	4.763168024101536	-4.676076312603077	2.3528082179646157
O	3.308438114101537	-6.300928282603077	5.439429617964615
O	0.36569763410153655	-7.891529612603077	1.5250171479646155
O	-0.29951839489846355	-4.302359162603077	0.4815203279646154
O	-1.9469101658984636	-4.725528112603077	-2.9583376320353842
O	-4.567172105898464	-2.193477412603077	-4.147545742035384
O	-7.208608895898464	0.40598351639692304	-3.389673932035385
O	-8.828424135898462	3.477398307396923	-4.908788572035385
O	-6.547521795898463	6.452973357396923	-4.5277600820353845
O	-5.260767545898464	6.560757577396923	-0.9713913830353846
O	-7.083726105898464	7.304455887396923	2.2856166079646156
O	-12.422029665898464	3.161356297396923	-0.1988893450353847
O	-10.341456055898464	1.042901446396923	2.1880909279646152
O	-7.053030275898464	-0.632514832603077	1.2453134779646153
O	-7.198299665898464	-4.078174992603077	-0.3210225710353847
O	-4.630749645898463	-6.6795811626030765	0.6425509979646153
O	-3.5696324758984637	-10.115262292603077	-0.5680896797353847
