12

O	25.017314149474345	16.155992754358465	27.940363477815833
O	24.99244402574369	17.270795726378097	27.231117084485554
O	29.864579196723398	15.626965021686452	29.206700929656453
O	30.913944199178886	15.259173769845356	28.658286958934525
O	31.668898402045635	16.346708252780278	28.516663933865935
O	30.93168312525769	14.277762799905583	27.74233599907604
O	26.451790039312137	16.176354760664722	28.15361600009959
O	29.01281931918239	16.255044442301966	28.358004387975456
O	27.124962244265774	15.518115165841099	27.22062609555334
O	26.99679080193183	17.322350459028737	28.544430734958272
O	28.427534086871447	15.368347893996964	27.512862644991618
O	28.333795066703278	17.325200160232708	28.77269379116288
