80

O	4.508826388462963	2.4231840702857412	-8.315018480351851
O	-1.4583537185370368	5.398908724285741	-6.680462530351852
O	-2.316595541537037	2.884363064285741	-8.102710020351852
O	3.4937289584629627	3.368612204285741	-8.467607360351852
O	-2.2662389015370366	1.6539395652857412	-6.318472220351851
O	-0.5375099765370368	1.2270464952857412	-3.4365458503518513
O	4.099593198462964	1.1199249942857412	-8.58847965035185
O	2.2916745784629633	3.039142794285741	-7.876470770351851
O	2.8478633984629633	0.7909648452857413	-8.151331090351851
O	-0.12106256153703676	4.213391744285741	-5.226092000351851
O	0.3656733084629632	3.0604755942857413	-4.5679970703518515
O	-2.158115401537037	3.6991444042857413	-4.652398090351852
O	-2.364026851537037	0.4955934742857413	-4.252951450351851
O	-3.863220571537037	1.8555945102857412	-4.255893250351852
O	-1.7309159105370369	0.5661675342857413	-5.597562420351851
O	-3.502022061537037	2.1465641062857412	-5.741384130351852
O	-1.7871290075370367	1.5257608936857412	-2.2957180523518512
O	-1.4830500235370367	5.918330444285742	-5.294459440351851
O	0.7415354284629633	1.2555858432857412	-7.053549210351852
O	-0.21151004653703676	2.131839581285741	-7.7524329003518515
O	2.111204468462963	1.7274765222857413	-7.428895520351851
O	-1.3345543435370368	4.719705164285742	-4.290281610351851
O	-0.7202090355370367	2.2250931482857412	-4.260394740351852
O	-1.8704270335370368	2.753394234285741	-3.5794173303518515
O	-1.6419902925370367	2.032746011285741	-7.502674130351852
O	-2.7764508115370368	1.6086906595857413	-3.409558360351851
O	-4.006311401537037	6.610369794285742	9.083849179648148
O	-15.176490261537037	-1.270771775714259	-0.7594334803518514
O	-12.614794461537038	-3.527649155714259	0.9164878396481484
O	-6.954750021537037	-9.409473635714258	-0.9573027403518515
O	-7.214677581537036	-7.031181525714258	-5.957147750351851
O	-1.6810024845370366	-7.049398665714259	-10.023627200351852
O	-0.6718672595370367	-6.381142705714259	-6.428374060351851
O	2.762504578462963	-5.070832555714258	-7.552503290351852
O	-2.5677562415370367	-10.655600235714259	-3.6664712303518514
O	-4.652199061537036	-13.017432335714258	-1.6402955763518514
O	-10.576725721537038	2.851912944285741	4.906899509648149
O	-9.368747181537037	6.332835614285742	4.4774338896481485
O	-7.902106701537036	8.179448684285742	7.424607429648148
O	-5.397694681537036	9.982236074285742	5.214684819648149
O	-4.678283101537037	10.604787174285741	1.6009581496481484
O	10.379207438462963	-3.123252105714259	8.27223807964815
O	11.664344938462962	-1.5646329157142587	2.6675330796481482
O	11.067379938462963	2.334296468285741	-2.2893264293518514
O	14.061157438462963	3.099197824285741	-4.515155910351851
O	12.541969838462963	6.540740184285742	-8.025661210351851
O	5.809705688462963	-7.600122825714259	3.9233882896481482
O	6.320260008462964	-3.945352225714259	4.9290182496481485
O	4.990246798462963	-1.9634983257142586	7.876448579648148
O	4.026406608462963	1.5609617798557411	8.847117379648148
O	0.8360797284629632	5.059243644285742	11.06807487964815
O	-0.31013106853703676	3.1069837042857413	8.009945479648149
O	-3.2851593115370368	1.4350040922857412	6.352319119648149
O	-4.978865981537036	3.1792214942857413	3.390035169648149
O	-7.646438761537037	2.935925534285741	0.7008220296481484
O	-10.503038151537037	1.0197562722857412	1.6135975496481487
O	-8.521794641537037	-0.9118320057142588	4.348283609648148
O	-7.230117371537037	-3.207832255714259	1.5939294096481484
O	-7.903828281537036	-6.847039605714258	2.190738829648149
O	-3.506202651537037	-5.073774665714259	3.410117819648149
O	-2.2187479615370367	-5.056069575714259	-0.1312805303518516
O	-0.7242974345370368	-1.8421803257142586	-1.5655647243518516
O	1.916800668462963	1.0467011732857414	-1.3665540493518513
O	2.9417577984629633	4.4832839042857415	-2.5918625833518516
O	0.1972374684629633	6.647380044285741	-0.9106654603518514
O	-0.6216171475370368	6.263261544285742	2.550949779648149
O	1.852102158462963	7.446227644285742	5.222032479648148
O	4.171943558462964	9.070092124285742	2.663081449648149
O	6.888459908462964	4.464653464285741	1.4278866696481485
O	5.709205098462964	2.0244195382857413	4.025688689648149
O	2.514054878462963	0.10322487428574134	3.6085199796481486
O	2.846340218462963	-3.1948435457142588	1.7849105496481488
O	1.019622548462963	-6.332550575714258	2.7879600396481488
O	0.7367180984629632	-9.829613835714259	1.3846517196481485
O	8.739824798462962	5.522957664285741	-11.657757660351852
O	8.856208898462963	8.544709824285741	-9.315370140351853
O	8.053474048462963	-0.021482595714258812	-12.05783734035185
O	4.635005388462964	-0.6529509257142587	-13.577956320351852
O	3.318124648462963	-1.1904456157142587	-17.08181442035185
O	2.057501738462963	-4.678876565714258	-16.20224762035185
