90

O	4.035711401371187	-1.080041050759898	4.042638900949152
O	3.8372565013711863	-1.396994840759898	2.6035974909491526
O	4.398462171371187	-0.5461579427598982	1.6982569109491523
O	4.169716691371186	0.6109356402401018	2.2012031409491524
O	4.5932566613711865	0.9046890332401019	3.6206760709491523
O	4.825503981371187	-0.14234705175989815	4.5581297809491526
O	4.446109391371187	-2.713359480759898	2.3333607709491524
O	5.525098081371187	-2.302551120759898	1.4295147459491524
O	3.9336518113711865	-3.352794910759898	0.9651830259491523
O	4.583674241371187	-4.425555690759898	0.20574350494915233
O	4.910566111371187	-5.316016660759898	2.1033213109491524
O	4.441507521371187	-1.476296570759898	0.7008927939491524
O	4.697844191371187	-4.013959110759898	2.8167659909491523
O	2.7287245013711865	-5.494266290759898	1.1997995689491523
O	2.0078116613711865	-1.7239320907598978	2.8398725109491525
O	1.6346915513711866	-2.814846450759898	3.8050817609491525
O	2.5166241713711863	-3.922210240759898	3.7393945409491525
O	1.2060956283711866	-0.6482313077598981	2.107098710949152
O	0.8356081343711865	-1.3687577507598983	0.8002772959491524
O	4.132299051371187	-5.718070220759898	0.7977597709491524
O	-0.2325972556288135	-2.444803250759898	-1.4162767290508476
O	-0.6935137686288134	-3.2631243007598982	-2.4813487190508474
O	0.3127464643711865	-4.100928110759898	-3.1341612490508477
O	0.6063268523711866	-4.630933920759898	-1.7748006990508478
O	1.0027751413711865	-3.7649250407598984	-0.6900493890508477
O	5.9035825013711865	-0.8445523907598981	5.371987910949152
O	2.4733179713711864	-4.296539290759898	2.328301580949152
O	1.9921889213711865	-3.035074810759898	2.1993194209491524
O	0.7150001243711865	-2.445943480759898	-0.35549870405084766
O	2.0446439213711867	-6.385070830759898	0.8572316619491523
O	5.824734291371187	-2.324972960759898	5.400824420949152
O	7.357258521371187	10.049617799240101	5.474087580949153
O	-1.1667253486288134	1.031885360240102	14.676599890949152
O	-7.609601428628813	-0.8469020507598982	9.713316260949151
O	-5.745214928628813	-9.620622820759898	3.9112187209491522
O	-5.346876218628813	-5.966897220759898	2.9212963609491522
O	-4.489929058628813	-6.936631700759898	-0.7507984090508475
O	-7.726662738628813	-8.6978199007599	-0.9623904490508477
O	-9.526595578628815	-5.702891290759898	0.6082869529491524
O	-12.059761978628813	-4.596921730759898	3.1753541509491523
O	-9.327125788628814	-3.393403460759898	5.419179250949153
O	-11.470116078628815	-1.557562480759898	7.856604980949152
O	4.643874681371187	5.598455749240102	12.149797290949152
O	11.106275721371185	6.383192269240102	6.2890384309491525
O	12.021065521371186	2.944113859240102	5.168040490949152
O	-2.4010577986288135	3.940852989240102	-9.621185209050848
O	-3.0733900686288136	0.29942940757410186	-10.668141409050849
O	1.9021616513711863	2.089839259240102	-11.66068040905085
O	1.6763623513711865	-1.129530860759898	-9.443192619050848
O	2.1191619713711867	-3.2703244607598982	-12.536871109050848
O	5.9529276013711865	-6.535343820759898	-11.671000209050849
O	5.253273691371187	-9.9311758507599	-13.22100610905085
O	1.5887197813711866	-9.6273081707599	-12.308465809050848
O	-5.634830238628813	-1.6354083207598982	-6.789209999050848
O	-9.019299348628815	1.253019071240102	-2.2414804990508475
O	-7.654800108628813	4.727723249240102	-2.8603411390508477
O	-4.121706088628813	5.809519739240102	-3.8227949490508477
O	-2.1071248186288134	8.7875278592401	-2.5677936090508475
O	1.4514169723711865	9.870172339240101	-1.8959933590508475
O	4.667731981371187	9.9394173092401	-3.8526782290508477
O	5.195240791371186	12.011398449240101	0.9709016699491524
O	3.5662081913711865	8.7103551192401	2.150226030949152
O	2.3840786013711863	6.617994449240102	5.044600060949152
O	4.359834791371187	3.791134829240102	6.373919410949153
O	4.496624191371187	1.3232695192401018	9.049230460949152
O	2.9883753813711866	2.2291116592401017	12.209180090949152
O	0.7677675133711865	4.655810459240102	10.375480390949152
O	-1.4703308086288134	1.802371019240102	9.243493890949152
O	-5.019411198628813	2.2911768892401017	10.435403300949151
O	-3.8205178586288135	3.683281059240102	5.946321030949153
O	-3.827530888628814	0.2506556555401019	4.520847870949153
O	-0.7674895686288136	-0.7681445507598982	2.7119264509491523
O	1.8065803513711867	0.21310162324010185	-0.6083437790508477
O	5.162972711371187	-1.2764232307598982	-2.173705639050848
O	7.931654681371187	0.35986002244010185	0.3233467649491524
O	7.1097330913711865	3.567540439240102	1.8094669709491524
O	7.6888559513711865	6.385711939240102	-0.6617403090508476
O	9.162991461371186	4.198895969240102	-3.4230155090508476
O	4.258976821371187	2.748139989240102	-5.6523539390508475
O	1.8794917413711865	5.207310079240102	-3.999576649050848
O	0.44166974747118654	4.464546819240102	-0.5495148790508475
O	-2.839940558628814	2.605379189240102	-0.6059310090508476
O	-5.698285018628813	3.307849529240102	1.6577197709491525
O	-9.062056508628814	1.7565665992401018	2.265943980949152
O	5.850606951371187	-10.324434250759898	-7.915314449050848
O	8.623806901371186	-7.764094390759898	-8.481420749050848
O	0.7671906783711866	-10.899154450759898	-6.188736549050848
O	0.3016616273711865	-12.662512150759898	-3.0435942790508475
O	-0.06723973162881347	-16.2331658507599	-1.9660026690508476
O	-3.4309328686288136	-15.529554550759899	-0.3075545800508476
