42

O	26.668706962176234	77.921133902954	91.42500614141275
O	26.220941049327283	78.01196766231281	90.04828873009978
O	25.111853964603323	77.61781906834798	89.2711549085911
O	24.063405848917373	77.99547810332783	88.24734327954215
O	22.75113698561634	78.04703590594916	87.72302179391589
O	22.07545015222726	78.32316716086959	88.92308221439094
O	22.92941897444347	79.36022888144	89.64669661956748
O	27.792397702024644	78.4972887588135	92.1110460970692
O	28.18597266803096	78.03938588717752	93.34952333066906
O	28.55737464420856	78.83942877022774	94.42831990167771
O	29.097686350858858	80.04657184803759	94.13498838729737
O	29.238209812281344	80.38033089291257	92.83341131138303
O	28.765961111016537	79.4754320611828	91.87515343264505
O	24.66081453609219	76.56478628087957	89.73226735220058
O	21.87564321127298	77.74467989800195	86.68736968953797
O	22.570067685903282	77.9284715040089	85.3185087912957
O	23.854902009829242	78.75789435106758	85.28872527938847
O	24.851726748138102	78.06812721444783	84.30957045439456
O	26.0742682904493	77.93157741458245	85.11215562682987
O	24.08471464638805	79.97675921746989	89.13192735980724
O	24.279476128412032	80.94350104848874	89.96112377456897
O	24.387799282544407	80.27230933204719	91.10665507018324
O	23.54243481516552	79.18136180476593	90.80686956039857
O	20.78024764039409	78.34444417025587	88.82426288647818
O	25.736072603344127	80.64105422209217	91.75705321588238
O	26.126180366242924	80.56003297336788	93.0954636410507
O	26.197728400972263	81.78930827250232	93.83816478829586
O	24.867563597706585	82.16470541155435	93.07980694557921
O	23.981673150627646	81.25118192158149	93.85355661050002
O	24.236412993085622	79.8646187472074	93.26588539667321
O	25.49594061008757	79.59025925181399	94.0186160588259
O	24.076357163481994	81.17311664629194	95.31814963972958
O	25.372916646465193	81.45085551385564	96.03635119634993
O	23.670137885209797	79.969551329252	95.55593622910303
O	25.870466348679393	80.34983535377006	96.90819071277838
O	25.354854707690873	80.26245888221638	98.307867461345
O	24.855158036390623	81.5798446507513	98.85544902552371
O	25.151549645014413	81.7801254964609	100.20756541686755
O	25.161901042009475	82.68311890341279	98.05980218761857
O	25.741931372927922	82.94626113954013	100.69379896812829
O	25.495911659521983	83.91846226380865	98.6056697103283
O	26.284165939762467	83.84143390805397	99.76203042503205
