76

O	-3.8512998289622944	-0.7398743323934426	2.6090732848606555
O	-3.787437268962295	2.7278963776065575	1.0023207488606554
O	-4.302450498962295	1.6068159326065574	1.6796062448606555
O	-3.581948098962295	0.4765682696065575	1.9508884248606555
O	-2.5876902389622947	0.3796741866065575	1.0216193678606555
O	-1.8137795789622946	1.5060821566065576	0.6991131198606554
O	-2.5215604489622945	2.6452218976065573	0.5594654520606555
O	-1.1267208825622945	6.695153467606557	-0.6800522751393445
O	-0.7504078799622945	5.521677127606558	-0.8440217651393447
O	-3.0936600789622943	-1.7783583023934422	2.4128578448606555
O	-0.45903017196229456	5.275772947606558	-2.1213652051393446
O	-1.7430281469622946	4.545535147606557	-0.4550134221393446
O	-4.692361458962295	-1.2071503223934426	3.5795991148606556
O	-2.895226428962294	5.303044587606558	-0.4069711731393446
O	-1.7054139499622947	3.8436930576065578	0.7616984378606555
O	3.099055411037706	0.5268770396065575	10.054323984860655
O	5.119300731037706	-1.2244704723934423	12.726660664860656
O	8.312845011037705	-2.8833060723934425	11.546423864860657
O	11.174958001037705	5.645157877606557	-4.9607782751393446
O	8.675711861037705	10.983501317606558	-3.0111492151393446
O	5.080452311037706	10.072969017606558	-3.8286303051393444
O	5.054845151037705	6.298042867606558	-4.445926495139345
O	7.1699489010377055	3.2198528076065576	-4.328650245139345
O	8.059833481037705	0.6190324396065575	-6.902153455139344
O	7.0048657310377065	-2.1389351523934423	-11.567320835139345
O	4.579470661037706	0.09862907860655756	-9.648731935139345
O	0.8560951510377055	0.6252548086065575	-9.058341285139345
O	-1.3583414829622944	2.1543605576065574	-11.713791335139344
O	-3.149997258962294	4.448084687606557	-9.314639435139345
O	0.27442950103770536	6.135002997606557	-8.725393135139345
O	-9.563718618962294	2.6686059576065575	-13.627562735139346
O	-9.766151558962296	2.3323048276065577	-9.836394335139346
O	-7.890808218962294	0.18900629560655757	-7.344448865139345
O	-11.149412198962295	-1.2591416123934422	-5.958830595139345
O	-3.7354236889622943	-1.7025069523934424	-10.276065035139343
O	-0.4330803189622945	-2.3122928123934425	-11.973226235139343
O	6.584203421037706	-5.117597172393443	2.5326553248606554
O	8.654752121037705	1.5684378986065575	1.6108062148606554
O	8.975544801037705	5.165224597606557	2.7945068448606554
O	5.322357041037706	5.6311728676065576	3.4798884348606554
O	3.3408324710377055	6.6689067876065575	6.558242024860656
O	4.053379551037706	4.954933937606557	9.840643534860657
O	0.3818716510377054	5.106854097606558	10.909877064860655
O	-2.9361496989622946	6.712067217606558	9.911294694860654
O	-2.2151959289622942	10.410328247606557	9.204541774860655
O	3.096284861037706	-9.183953682393442	7.037696024860655
O	-0.7099982259622946	-13.462645582393442	4.263304074860655
O	-13.993957698962296	-6.788081712393442	4.660116164860655
O	-4.284311518962294	-9.718181982393443	1.2388476478606554
O	-1.6893863499622945	-9.303247982393442	3.9755755048606556
O	-1.1069213302622944	-7.4924202123934425	7.257302344860656
O	0.6097295310377056	-3.1270254823934422	7.260667724860656
O	1.5749005210377056	-0.8150850023934425	4.4268883548606555
O	0.16747320103770558	2.6583660776065576	4.240644764860655
O	0.2845478010377054	5.919558927606557	2.6443749948606556
O	3.4537210610377054	6.536683437606557	0.4444379393606554
O	4.081053661037705	2.8423028976065576	0.32855750286065544
O	1.7330419810377056	2.3692989676065577	-2.6474960651393444
O	3.3156920810377057	0.8007201156065575	-5.691969055139345
O	6.037725481037706	-0.7033287523934425	-3.6054176551393446
O	2.295058311037706	-8.140289802393442	-4.620022065139344
O	2.1660145710377057	-4.412721042393442	-5.342586945139344
O	0.8531574710377055	-2.0868568623934425	-2.5573311851393448
O	-2.5721117789622943	-1.1274785423934426	-3.7555293851393445
O	-5.336563578962294	-0.17197646239344244	-1.3444741151393447
O	-7.400226898962294	-0.9686363123934424	1.8067755448606555
O	-9.666235368962296	0.7075559166065575	4.433350554860656
O	-7.125934968962294	2.7947234476065574	6.392917244860655
O	-3.8958807889622946	1.2928655516065575	7.643461734860655
O	-3.7156656889622948	-1.4049433423934423	10.330535014860654
O	-9.103145698962296	-4.544799302393442	7.147636754860655
O	-5.869125458962294	-6.218499982393443	5.9734073448606555
O	-3.8135839089622943	-4.497041222393443	3.3602994648606552
O	-4.6638740489622945	-5.239816322393442	-0.28439783713934463
O	-2.0701947589622947	-5.745733492393442	-2.9886903151393445
O	-2.2277564489622943	-6.365670242393442	-6.676712755139344
