41

O	22.25948957372495	81.77698093533539	96.49303826827864
O	22.329129264406383	80.61997086472853	95.87185998690937
O	23.04931156000018	80.89252126852689	94.37250269436896
O	23.1949449915574	80.3427081494032	93.15366837194472
O	22.840900591521393	80.1734587759696	91.75255545606869
O	23.44657861627838	81.1622031908564	91.35298697476887
O	22.297511221057015	79.86092987888529	90.25415068873085
O	21.686017754375047	79.7839318848552	88.84074561387872
O	22.296982614078157	79.27360865244287	87.72099904460428
O	23.055837818907293	78.28049667375389	86.93227225539292
O	24.20291813088098	79.00743277157402	86.64834530695872
O	25.4996676527081	79.0070428342893	87.08848592300141
O	25.814999417864424	80.42566434565715	87.45408285222737
O	24.515151591687314	81.02064742082621	87.52315749439114
O	23.920771142382605	80.44141239225684	86.28855783958556
O	21.195404079628037	78.4704914047455	88.6280060918267
O	19.987894462377824	78.03770536172944	88.64047447305738
O	22.375994542077414	78.0673986177708	89.37039404061292
O	23.59874034696233	78.84593442067218	89.47989894556986
O	24.391489766310276	77.84528827146082	89.78071316003185
O	23.87049255500031	77.67819959247848	91.02874988815957
O	24.88537662254813	78.15878293384145	91.88466026711589
O	25.266679977200212	78.27896884385751	93.26538970778275
O	24.5186392237633	77.73163781125334	94.27126368331918
O	24.43887587627177	78.0318539255043	95.6410169825523
O	25.120039601460547	79.07492723862346	96.14180503581306
O	25.753375532710574	79.77815440524448	95.19377743711915
O	25.942049623893332	79.3414607915861	93.86902565225711
O	24.602308583189554	79.70304549091237	97.37321309288913
O	25.03080972781422	80.89750522393383	97.5442254027545
O	23.711615951236418	79.22548953623448	98.32731756457827
O	23.257928611750142	79.87082866627584	99.51467841536612
O	23.695470115299678	81.26169569600631	99.83169929583889
O	24.79280931359927	81.09634434327538	100.86828313354377
O	25.840777217071654	81.92568662795148	101.31946126695733
O	27.165285164866233	81.6837399263311	101.12013518528464
O	27.54170289383284	80.41325593877713	100.7758593389379
O	26.54300261734521	79.48532081914767	100.69983097293593
O	25.174903536144328	79.75584217438369	100.90192120398359
O	23.904199910263962	79.06359316839087	100.6011640646065
O	22.540571330696455	77.79776080936537	90.59071212874329
