23

O	15.155981221963657	23.7430788441174	26.71109233854854
O	14.222673896458517	21.87418969889404	28.530100565500987
O	14.435827667475907	23.08791004918952	27.97861621571569
O	14.310641983053795	21.911691876818743	30.083995404875836
O	14.674623564637187	20.74996487495422	30.702042380720084
O	15.482829377410956	22.905316037630296	30.176881335957262
O	15.098619030386399	24.189256105875973	30.387507581415225
O	16.494413733970497	22.206125125356564	30.90976565077571
O	15.633665498616152	21.090658382475677	31.584148002500477
O	16.642032442954402	20.05993765189091	31.84030639909071
O	17.646602625180552	20.602521327201696	32.70966621155786
O	17.425834971701335	21.561008838505224	33.47420192080617
O	18.857721566299528	19.89013524427152	33.02136691460132
O	19.2388000008569	19.055214761407107	31.98014599640633
O	20.25698972399659	19.657804736117722	31.36873581283584
O	18.397038164890066	19.010066141511352	30.757416765992165
O	18.164629690593863	17.61325804255442	30.607037949623574
O	17.166311968631117	19.692195573900715	30.513780287552848
O	17.995515087482527	16.773035357994182	31.66566866854187
O	17.53242526407429	17.31438326786686	29.5598503771743
O	16.443311217742103	23.244848236138413	26.167161856591548
O	14.131812827620632	23.70437727654714	25.385927687836205
O	15.41488902596521	25.408976484556344	26.905593661764676
