85

O	-0.7108675799333332	0.460092643883333	0.37794116756666674
O	-1.403646289933333	-0.05752335311666701	1.4104307997666667
O	-1.078458580433333	-1.208684306116667	2.1198160797666667
O	0.17069056206666677	-1.1891128161166673	2.4955055197666667
O	0.9126400420666669	-1.131635346116667	1.3474145897666667
O	0.4744339720666668	0.00442151088333298	0.5283083547666667
O	-2.0533278329333333	-1.056876086116667	3.035582019766667
O	-3.267446537933333	-1.5641926161166673	2.5157895897666664
O	-3.5008290279333334	-1.218657806116667	1.1741661747666667
O	-2.601343567933333	-0.21500279611666706	0.7038829417666668
O	-1.597062917933333	1.542596791883333	0.13426307676666674
O	-2.857183667933333	1.059339729883333	0.24763602326666675
O	-1.2476815669333332	2.692963563883333	0.4542205197666668
O	-2.141130677933333	-0.05755450511666704	3.9621797097666667
O	-1.917314063933333	1.1561335868833331	3.2816596397666666
O	-2.9314395779333333	1.683121748883333	3.0541949897666667
O	-0.7667270229333332	2.034971083883333	3.283472059766667
O	0.6363542020666668	1.975200783883333	2.9462423097666663
O	1.551014872066667	1.116781673883333	3.674867339766667
O	0.9984454820666671	0.371974981883333	4.730872329766666
O	0.4279523020666669	1.389377392883333	5.413746329766666
O	-0.47296467493333316	2.091815123883333	4.586510579766666
O	1.5574090120666668	-0.7335787761166669	5.380688709766667
O	0.7643025520666669	-1.785479836116667	5.626313179766666
O	2.787385162066667	-0.6626297961166671	5.331958699766666
O	5.294673682066667	7.492257013883333	12.585316539766666
O	2.037784752066667	5.565239983883333	13.634060839766667
O	-8.681254207933334	-11.859003996116668	-4.710986120233334
O	-9.747589517933333	-6.7077999261166665	-3.4699203302333332
O	-6.404371837933334	-7.275704616116667	-5.2681001902333335
O	-8.101848357933333	-7.162684216116667	-8.680639230233334
O	-7.410791267933333	-1.9769632861166673	-6.720495870233333
O	-5.313313487933334	-3.012205736116667	-9.827872560233333
O	-4.723845097933333	2.039992323883333	-10.687320260233333
O	-5.821259627933333	6.7122596738833336	-13.368645260233334
O	-7.421343247933334	8.403041063883332	-7.0603049102333335
O	-12.363081087933333	-0.3754109861166669	2.3786120997666664
O	-8.713546867933333	-0.13478995711666697	3.218461339766667
O	-8.186975007933333	3.323059053883333	1.5979408197666667
O	-10.872800357933333	5.022329133883333	3.6759120997666663
O	-8.866767697933334	6.549188113883333	6.6331349197666665
O	-6.6592506979333335	8.533309963883333	4.179833099766666
O	-9.427595257933332	9.836603953883332	2.028282329766667
O	-6.3721878679333335	10.558374223883332	-1.8939985302333333
O	-1.2530266689333331	8.835321273883332	-5.802138630233333
O	-0.4755590809333331	5.639904853883333	-7.9032029002333335
O	-3.2834853779333333	5.746077423883333	-10.503181160233334
O	-2.392542587933333	9.390302403883332	-11.271484260233333
O	1.4206686520666667	8.869359033883333	-11.479885960233334
O	5.187661372066667	6.509106303883334	-8.666371970233333
O	7.7525787420666665	8.453238283883334	-6.546077550233333
O	-2.600746797933333	11.160527803883333	1.1950937807666668
O	0.21387968206666685	8.713326813883333	1.5628901697666668
O	3.691780202066667	8.613572093883333	-0.056621701233333266
O	3.882553792066667	5.392342853883333	-2.156776150233333
O	5.330170542066667	2.190369613883333	-0.6909066802333332
O	5.422109402066667	0.204090049883333	-3.8595462702333334
O	7.110590252066667	3.093928683883333	-5.622785720233334
O	11.269563012066667	-1.6554571661166673	-5.555940920233334
O	9.054516412066668	-1.363119706116667	-2.4486008602333333
O	10.470164712066667	1.306120796883333	-0.08177404223333323
O	8.291798372066667	0.27734535688333306	2.9332363197666664
O	6.820994552066667	-3.1588012661166673	3.663798059766667
O	4.350085892066667	-4.475038166116667	6.266953239766667
O	5.271826962066666	-8.158752326116668	5.882245299766667
O	2.1636993720666666	-9.555262996116667	7.583511239766667
O	-0.6545858449333332	-7.415907016116667	6.246147139766666
O	0.34938272206666676	-5.601680226116667	3.064751689766667
O	2.773567852066667	-7.911783446116666	1.3198652097666668
O	0.22626755206666682	-10.780800396116668	0.49975364076666673
O	-1.718557016933333	-8.336771916116668	-1.5554754802333333
O	1.2194386920666667	-6.236865186116667	-2.9811495802333337
O	2.853107212066667	-9.300259696116667	-4.604343480233333
O	-0.4920046449333332	-10.710937696116668	-5.931926060233334
O	-1.1966044139333332	-7.277153036116666	-7.450187590233334
O	12.947970212066668	-5.987237776116666	-3.538292060233333
O	12.313498712066668	-4.175177556116667	-0.17645856523333325
O	6.722286592066666	-6.734069956116667	11.200477739766667
O	4.693026572066667	-4.497632226116667	13.654645939766667
O	1.545902592066667	-8.891681096116667	14.850993639766667
O	-4.494934977933333	-8.355607336116668	12.895166439766667
O	-3.6924143179333333	-1.954036026116667	10.806097339766666
O	-1.282927528933333	0.6014568298833329	12.320405839766666
O	-2.637495427933333	4.165569303883333	11.430058839766666
O	10.581157112066668	7.840980653883333	3.2637651997666666
