74

O	-1.1895498379464287	-0.8302963385178574	0.2534584338892858
O	-0.12729185594642856	-1.6875292885178577	-0.10867020591071419
O	0.8257061150535715	-1.6439138985178574	0.9971561890892857
O	1.8231309950535715	-0.9136806585178574	1.1283787960892857
O	0.1504257690535714	-1.1705519285178574	-1.4597930999107143
O	-1.1794817229464285	-0.8220664885178575	-2.061030459910714
O	-1.9778380949464287	-0.41750306851785735	-0.8567266199107142
O	0.8609699150535716	-2.8144077385178576	1.7808126600892857
O	-1.3665816439464287	-2.5298187785178574	4.496735650089286
O	-0.033512292946428546	-2.7191071885178575	4.8425224600892856
O	0.5918985950535715	-1.4835564785178574	4.710414180089286
O	0.004140438053571449	-0.5309297685178576	3.852472240089286
O	-0.7733671149464285	-0.9820232285178574	2.8761623200892856
O	-1.7572379449464286	-1.7203096785178573	3.4105764600892856
O	0.14287758605357148	-3.3238243985178575	6.212720540089285
O	-0.9034818509464285	0.06964922148214259	1.5301779100892858
O	0.21309370205357148	0.9547899914821425	1.4359822100892858
O	-2.1126816949464287	0.7618004104821425	1.8907392300892858
O	-15.42981008494643	5.891784421482143	-0.5227007519107143
O	5.219097385053572	-4.048002748517858	10.914858700089287
O	8.391986325053571	-4.164169378517857	8.654334600089287
O	7.505048705053572	-7.555503988517858	7.091839570089285
O	4.6937806750535715	-5.964185148517857	5.087456990089286
O	6.665855265053572	-2.8799545485178575	3.936604290089286
O	9.50827881505357	-5.101254988517858	2.6937017400892858
O	7.260631535053571	-7.720792118517858	0.8814878820892857
O	5.349827535053572	-5.145117928517857	-1.0308278299107143
O	8.57771619505357	-3.3547284985178574	-2.004227399910714
O	10.04773001505357	-6.713765598517857	-3.2994197299107144
O	6.716146925053572	-7.246358848517858	-5.125909699910714
O	6.946141445053572	-3.823603118517857	-6.816736109910714
O	7.1446821250535715	-6.136057778517857	-11.841671899910713
O	4.351098575053571	-8.061787998517858	-10.143551199910714
O	0.6864279150535714	-6.977685788517857	-10.033861899910713
O	-0.9931434969464286	-10.206701378517858	-8.857095409910713
O	-1.5620874789464285	-10.712479978517857	-5.083699329910714
O	0.16799710905357146	-9.330293888517858	3.1910284600892855
O	-3.6143086649464284	-8.771218228517858	2.827400290089286
O	-4.3172213849464285	-5.056727708517857	2.047027260089286
O	-4.556453234946429	-5.584229058517858	-1.7452349599107142
O	-7.333797664946428	-8.041302208517857	-1.5227731199107142
O	-10.450090784946429	-5.742822078517857	-1.8994281899107142
O	-9.093924284946429	-4.359202628517857	-5.193413339910714
O	-8.07427614494643	-7.663170878517857	-6.721558379910714
O	3.0783532150535717	0.09739695848214253	-9.621369119910714
O	5.171004055053571	-3.0592460085178574	-10.272289599910714
O	3.7389180350535716	5.301060021482143	-12.203669899910713
O	-6.503009664946428	1.7710930614821425	-8.020089979910713
O	-4.965507684946428	4.885594291482143	-9.821536399910713
O	-1.5308419339464285	5.3699761814821425	-8.107378799910713
O	-1.2629206189464286	7.450736971482143	-4.8758089799107145
O	2.5197698450535717	7.466897441482143	-4.683020629910715
O	2.7539521450535718	8.300185481482142	-8.342568579910713
O	2.1383266650535715	11.434728621482142	-3.5016027599107145
O	-3.4105583049464285	11.324107321482142	-2.3412224899107144
O	-2.4769606249464284	10.517449521482142	1.2710553500892858
O	-4.277429214946428	8.746356341482143	4.127973490089286
O	-2.1113475549464287	10.273801461482142	6.920580600089286
O	-3.0384685549464283	7.817806021482142	9.666807330089286
O	-3.0290011149464284	4.5159061614821425	7.8692519800892855
O	-1.0996455129464286	4.690859911482143	4.530776960089286
O	1.6742429350535715	7.161731861482142	5.227032630089286
O	3.6956736750535715	5.159857301482143	7.9472581600892855
O	4.151696775053572	2.4892341214821423	5.268113090089286
O	4.774364505053572	4.889580891482143	2.2404444800892858
O	7.646978225053572	6.6257708914821425	3.7933564900892858
O	9.28995484505357	3.3921569914821426	5.160967070089286
O	8.81740427505357	1.8058706914821425	1.6866118800892858
O	-9.74549658494643	8.143271931482143	12.561341000089287
O	-6.194357454946428	-0.0042114055178574805	14.891653100089286
O	-8.538014984946429	1.9056570014821426	12.545735600089287
O	-9.79697493494643	1.2510164194821427	5.983333820089285
O	-12.179728184946429	3.3939936014821424	3.8829635000892857
O	-13.09770958494643	1.3506920304821426	0.7316701750892858
