22

O	23.32212311189174	15.487584449161425	33.00270513072796
O	22.062096400898	15.689013658944331	32.46974411519763
O	21.360563240951777	16.702164156893623	33.08672915430869
O	21.94522649787032	17.834651313285384	33.53046665099223
O	23.32837946894591	17.716816411461334	33.62777432214135
O	24.085713361692783	16.664511562593276	32.993574948085275
O	25.455933782505852	14.489698613010633	33.37230483240767
O	20.016424516730186	16.63248621534557	32.87152741310396
O	19.24411478074978	17.747625463442535	32.7107891936628
O	19.703470273387364	18.81175043522984	33.44891665019123
O	21.004975148654943	18.773693757219196	33.99994183395867
O	18.658599773016448	19.748697716536924	33.777740311648316
O	17.39242677600814	19.55056564034177	33.70962680491593
O	18.735167908282754	21.03313867708367	34.26281130756719
O	24.173980019008525	14.27912268067054	32.693412191409536
O	25.25737669719279	14.610870999366794	31.825946287153542
O	26.227362943058036	13.667883579214486	31.18407971497763
O	26.11747840715282	12.356067044300492	31.64944734761877
O	27.168315085999602	11.528770137544871	31.36414246985986
O	28.423851998743636	12.102537578710407	31.547393858532246
O	28.54006380755082	13.363899035822108	30.97203906821475
O	27.505669091709823	14.208115264477726	31.358784480521425
