28

O	19.432181571321358	17.412763746147903	32.940896820532124
O	20.251340840278676	16.339107657893365	33.04718191814365
O	21.56680580413478	16.578227627775544	33.2610350521895
O	22.018217536443103	17.802210087895194	33.576333923374165
O	21.03153978306476	18.616530848844686	34.196897954199876
O	19.728203294012356	18.508230200582773	33.67906241977121
O	22.37346486183755	15.495160937324131	33.45320172603865
O	23.708216070727733	15.629560120328291	33.61678646645849
O	24.288369500024793	16.839890748821713	33.38568366047988
O	23.40124751803695	17.91545110084075	33.707028366131105
O	18.626979849227943	19.396032651773822	33.90346262355801
O	17.468989403183837	19.32302533432497	33.376787938850285
O	18.396246398929282	20.468973693328348	34.72785254305928
O	24.559369062104118	14.50665177322709	33.220453022910284
O	23.969365351937455	13.82977621524441	32.077764485366906
O	24.914408330651078	13.38786404396956	31.091364233119826
O	25.79471935470901	14.505706239682162	33.38916582172937
O	25.729890187835352	14.415932774777582	30.70269542594118
O	27.03227735320133	13.915913382312258	30.31706247387427
O	27.337532330384466	12.609100647421117	30.423734090759424
O	26.522234535317065	11.733578107828475	31.06578154723189
O	25.72963749141826	12.523409625336445	31.897478289152453
O	28.618418251570574	11.797619250539778	30.245324409039632
O	29.031289510210478	12.218497440311591	31.62956670580856
O	28.152499309414537	11.642100274891648	32.61241737187425
O	27.277001446142986	10.636463124940033	31.84476893758712
O	25.99547763586378	10.327683628395107	32.74811564601134
O	25.94085177553449	11.283727183990605	33.903941300864886
