94

O	1.4211850670986683	2.3205419415439996	4.030318089093333
O	0.866681387098668	3.4274126415439996	3.5765918790933333
O	0.7984538070986682	3.423588711544	2.2157189990933333
O	1.391825047098668	2.2137906915439993	2.0649342990933333
O	1.826942907098668	2.369044061544	0.8718216450933333
O	0.7328738170986682	2.7569776715439995	0.36709026309333326
O	-0.4719833249013319	2.856782681544	0.7293969420933333
O	-0.8099294029013319	2.2095341315439994	-0.27194018790666674
O	0.413392127098668	2.0828116155439997	-0.9267242289066667
O	1.008965037098668	0.9898901715439996	-0.5580459249066667
O	0.2116163770986681	0.49968461654399965	-1.4191485909066666
O	-0.9770639239013319	0.39578522154399964	-0.8402262579066667
O	-0.8412483449013319	-0.3201950384560004	0.23337633809333327
O	0.414599377098668	-0.5743988784560004	0.20553538909333327
O	1.039535627098668	-0.07396397845600045	1.2380783490933334
O	0.24287800709866803	0.18543755954399965	2.2067471990933334
O	-0.9077365009013318	0.6240015825439996	1.7430146490933334
O	-1.138724905301332	1.0052647675439996	2.9945356790933335
O	-1.242651175901332	2.3047476215439997	2.938781399093333
O	-9.557421132901332	-0.8432319184560004	2.292802019093333
O	-12.136241912901333	-3.1037033584560008	0.6054858680933333
O	-10.694203722901332	-5.7457068884560005	-1.7088392909066668
O	-6.459790462901332	-13.869225398456	0.19092090409333326
O	-3.680512742901332	-16.392113998456	1.1068191990933334
O	5.1705697770986685	-11.204050598456	-0.5432253639066668
O	6.297737167098668	-3.361547518456	10.408136019093332
O	5.930259977098668	-3.4081221584560004	6.543200159093333
O	5.541894517098668	-5.641537428456001	3.5128249790933332
O	8.174666527098669	-6.313414848456	0.9326775580933332
O	8.949623387098669	-8.338515978456002	-2.2212088909066665
O	13.059353787098669	-4.881120968456001	-1.6039604709066666
O	10.842837887098668	-2.5500352084560003	0.4387355770933332
O	10.64539048709867	1.1856146704439996	1.3557754390933334
O	13.36270128709867	3.0595839115439993	3.326407109093333
O	10.701322987098667	4.911268801544	5.434481789093333
O	9.800882487098669	1.6310754945439996	7.1526535490933325
O	13.367486187098667	1.3848690185439996	8.734354899093333
O	15.082302687098668	4.855589701544	8.735189849093333
O	3.272148737098668	14.123592901543999	2.0414784090933336
O	5.987829837098668	13.225192401544	-0.5021862819066667
O	8.784228127098668	10.634676471544	0.15212000509333326
O	-1.574199517901332	-4.819774878456	-4.427447900906667
O	-1.1599073403013318	-6.9586737284560005	-1.2765600709066667
O	-0.7209470999013319	-6.152190448456	2.3888955990933334
O	-1.6724900109013319	-6.702976798456	6.110380499093333
O	-2.494845882901332	-2.921108338456	6.393899689093333
O	-5.685024542901332	-1.3319504784560006	7.9118624390933325
O	-9.096215252901331	-2.1408114784560004	6.3867999790933325
O	-10.551349052901333	1.2555804503439996	7.428440989093333
O	-8.879848482901332	4.590343111544	8.255381189093333
O	-6.228578102901332	0.7987977355439997	15.108666719093334
O	-4.5479494729013314	-4.658617338456001	11.311235119093332
O	-3.6791957229013317	-11.174156898456001	4.271986839093333
O	-5.697907442901331	-8.947793298456	1.8782231790933333
O	-5.427236532901332	-7.913874348456002	-1.7720156609066666
O	-7.106059522901332	-5.526305308456001	-4.213465320906667
O	-6.802682702901332	-4.0762891584559995	-7.751486620906667
O	-6.196548982901332	-0.3488827884560004	-8.698188940906666
O	-5.474764282901332	1.5552734315439998	-11.938723380906668
O	-2.3795654829013317	3.492717091544	-12.893649280906667
O	3.879552997098668	6.425190171543999	-9.885321500906667
O	0.23872873709866815	7.105895031544	-8.916188310906668
O	-2.519034772901332	4.386117301543999	-8.756710420906668
O	-6.1504727029013315	4.338097151544	-7.399752800906667
O	-9.767833252901333	3.0914810015439995	-7.665168450906667
O	-13.638172012901332	2.6175730215439996	-2.6991868309066667
O	-10.403142282901332	0.6304533545439996	-2.4739330709066665
O	-6.675810522901332	1.4908126065439997	-1.8071084309066667
O	-3.831853122901332	0.6713828415439996	0.35791140709333324
O	-3.769765272901332	2.3030498715439993	3.8853083890933333
O	-1.2406210969013318	2.3573002415439994	6.871321619093333
O	0.6155784170986682	-0.9450328184560002	7.171228459093333
O	0.9216416570986681	-2.0155755284560004	3.7614796290933334
O	4.076712787098668	0.26936411154399964	2.9251436290933333
O	7.007150657098667	-1.2731057984560006	1.2609191090933334
O	4.751895427098668	-3.8775233684560004	-0.2979728129066668
O	4.233132867098668	-4.838357128456	-4.041423570906667
O	2.4290349770986683	-3.114201228456001	-6.932803820906667
O	7.3318301270986685	-5.371514388456001	-9.770871250906668
O	6.365075367098668	-1.9816482084560003	-11.210201980906668
O	5.969677507098668	-0.13548021845600045	-7.923975950906667
O	6.644190657098668	-0.18528362845600044	-4.147621420906667
O	4.032362017098668	1.2262924460439997	-1.6915685509066667
O	5.307626597098668	4.650120371544	-0.5092398329066667
O	2.866201727098668	7.631581241544	0.33403115909333325
O	-0.7397242649013318	8.930407851544	0.22217745009333328
O	-3.180745452901332	11.564061001544	1.5893325290933333
O	-5.782535952901332	9.611778331543999	3.595480419093333
O	-7.005188832901332	6.145477321544	2.4705594990933335
O	-9.432934112901332	5.691492761544	-0.4343078709066668
O	-4.154889752901331	8.272387131543999	-5.191591380906667
O	-1.685250911901332	5.7004334915440005	-3.4829797309066666
O	1.771874207098668	6.948306911544	-4.595593980906667
O	4.4679571470986685	4.300223111544	-5.470249420906667
