75

O	1.3855120086767863	-3.58708729375	-2.5430271155428565
O	2.327664628676786	-3.0924511137499997	-1.8596221955428567
O	4.816415978676786	1.2158868542500003	2.581890134457143
O	2.4178739986767863	-2.4990812537499996	-0.6147179955428568
O	1.830761838676786	-4.1001020637500005	-3.779402285542856
O	3.5476813786767862	-2.7405106237499997	0.1640670704571433
O	0.0505347246767861	-3.13861078375	-2.6281562955428566
O	3.461941568676786	-2.2134648037499995	1.4531339394571434
O	2.621153728676786	-1.1366227737499999	1.7421087644571434
O	2.128864948676786	-0.5365428717499998	0.6148339290571433
O	1.5985346786767862	-1.5201940737499997	-0.1727552455428567
O	2.9365420386767864	-0.08582601574999976	2.7778819244571435
O	4.3876382986767855	0.08168221825000024	2.3667449044571436
O	5.0589506386767855	-1.1798537537499998	2.7357414144571433
O	6.136568328676786	-1.7256116837499997	2.1353008144571435
O	7.291622718676786	-1.99305222375	2.803431284457143
O	7.325794548676786	-1.89842989375	4.165078844457144
O	6.080236158676786	-1.9470951837499997	4.793296184457144
O	5.1181996886767855	-1.2383097037499997	4.1370096544571435
O	-3.152724451323214	-10.75387772375	2.0760164344571432
O	-1.8507325513232138	3.3164105962500003	9.844861164457143
O	-5.500859861323214	3.3579526862500004	8.795094114457143
O	-4.632584491323215	9.37417499625	5.539204454457144
O	-1.1073241413232138	9.30804677625	3.987410114457143
O	1.7619911886767863	11.68351617625	4.943732514457143
O	4.331512618676785	8.782642876250002	4.947735894457144
O	2.739307608676786	7.34417097625	8.069777474457142
O	6.567091708676786	12.38219167625	8.398838884457144
O	9.569981538676785	9.31264338625	-1.1446236855428567
O	11.641115238676786	7.68428834625	-3.8489850355428565
O	12.785650738676786	3.97860877625	-3.7892682255428562
O	9.254963218676785	2.79271695625	-4.4097628955428565
O	7.178492148676786	5.826001106250001	-5.387487315542857
O	5.619262688676786	8.25443633625	-2.862285735542857
O	1.1239197886767862	11.18604797625	-0.03479489054285667
O	-6.935740101323214	-2.60286121375	7.070140334457143
O	-5.167942541323214	-4.24861792375	10.020679714457142
O	-2.0000433813232137	-4.82777629375	7.907656234457144
O	-0.01840171982321389	-8.06792714375	7.4262940044571435
O	4.755425178676786	-10.74872302375	3.6234239144571436
O	-9.974595361323214	-6.222545923749999	10.874784054457143
O	-9.774510411323215	-7.617199583750001	7.303620764457143
O	4.019647618676785	5.77194725625	-11.353202945542858
O	-3.8952032813232136	5.090952216250001	-9.207468375542858
O	-2.990776811323214	1.3916330962500003	-9.557507345542858
O	-5.266958801323214	-1.5639730237499998	-8.438281305542857
O	-4.697858031323214	-5.413336483749999	-8.065450515542857
O	-2.105704001323214	-11.86880992375	-7.7199433255428564
O	-3.522713371323214	-13.63199492375	-4.609392915542856
O	-4.855499261323215	-10.65853122375	-2.6698739255428565
O	-3.627485771323214	-7.084937383749999	-1.9913776755428565
O	-2.923826911323214	-4.44050743375	0.7116490338571433
O	0.44899060567678606	-4.832650333749999	2.464904314457143
O	2.4587140386767863	-3.16861228375	5.162207054457143
O	0.24055827367678612	-1.7810436837499997	7.898248454457144
O	-2.671055881323214	-1.0034979137499997	5.497384594457143
O	-1.1959926413232138	2.42153929625	4.424309374457144
O	-3.319028011323214	5.56509808625	4.705029384457143
O	-6.442874711323214	3.4191877462500004	4.616284324457143
O	-5.635082551323214	6.19123500625	-0.25097523754285667
O	-3.1727570813232138	3.21866757625	0.3210950624571433
O	0.3180950316767861	4.55585581625	-0.48540474554285673
O	2.935045968676786	2.1737075162500004	-1.9906327355428568
O	3.8336227686767863	-1.0905650537499998	-3.6813866555428563
O	6.598708408676786	-3.5287229537499996	-4.555624935542856
O	6.128444238676786	-6.549998983749999	-2.326844355542857
O	2.603092598676786	-7.72395558375	-1.3998480155428565
O	0.45040419167678614	-9.679157833749999	-3.8809872155428566
O	3.360838668676786	-10.11038832375	-6.225471655542856
O	3.3517978086767863	-5.188177823749999	-9.154280945542858
O	-0.06544147172321389	-3.5644350237499998	-8.261567245542857
O	-0.9626982073232139	-1.6336597837499998	-5.176126535542856
O	-0.5055996303232139	2.08604688625	-5.782042965542857
O	-2.998340411323214	4.66880482625	-4.365485805542856
O	-3.1063180313232137	8.467959836250001	-4.003996505542856
