30

O	0.7769445748571426	-0.15116975847619035	-8.268882286238096
O	-0.3051855111428574	-0.7445037214761903	-8.880334726238095
O	-1.4396332191428574	-0.00959216247619038	-9.144630176238095
O	-1.4900953811428574	1.3219518295238097	-8.796247926238095
O	-0.4096410161428573	1.9189095595238097	-8.185366276238096
O	0.7229312448571426	1.1806898735238096	-7.922249666238095
O	1.9978244048571425	-0.9449154104761903	-7.9840368262380945
O	-2.6046121951428574	-0.6508058264761905	-9.802950776238095
O	-0.4655243631428574	3.3538840195238095	-7.811935656238095
O	10.290438274857143	-4.7617173204761905	0.8027759937619052
O	-0.5452082661428573	-8.49935936047619	3.919560293761905
O	-0.20955721614285738	-5.92310046047619	1.023754283761905
O	3.574605014857142	-6.247411300476191	1.1879860637619046
O	3.413484534857143	-10.01236593047619	0.1632753737619046
O	0.028328724857142662	-10.74556323047619	-1.5584682562380952
O	1.5193233948571425	-10.54382503047619	-5.112198816238095
O	-7.372824985142858	-3.3073897804761905	-1.605090236238095
O	-9.697628025142857	-0.5766805304761904	-2.795684856238095
O	-8.523987915142857	2.6855253395238097	-4.528590575238095
O	-7.015702045142858	3.9769233795238095	-1.297902236238095
O	-8.308281515142857	1.7487427095238097	1.5023391837619045
O	-6.713014785142858	-1.6107115104761902	2.4323129637619045
O	7.409794554857143	11.84451976952381	-2.295368016238095
O	15.126376174857144	5.009161859523809	0.1043518437619051
O	6.117539764857143	4.390467009523809	0.5437098037619048
O	8.569124884857143	1.8166547195238096	1.946167943761905
O	-2.2264173651428574	3.2140413795238096	3.4974741937619047
O	-2.4749055151428574	6.9297305795238096	2.7519871437619052
O	-3.156979125142857	9.52709263952381	0.07288350376190511
O	0.1954914348571426	11.08526506952381	-0.755275596238095
