18

O	26.7727928954623	15.47070023026559	38.64792351240532
O	26.62689207301407	16.797769333508526	39.244323606281036
O	28.257439547961944	16.976965777962015	40.68207723875782
O	27.09923894231637	14.291585508463053	39.25007839751851
O	29.145292487873157	15.416259566709755	36.01572789704679
O	28.13419004294053	17.310016424479628	36.57674609199932
O	28.205231371095255	13.501995389324126	38.92734328234595
O	29.31143660742021	13.311150453462522	39.89733304249661
O	30.134801810988407	15.26519821028656	39.20330919309591
O	28.517839352790357	13.622781641423963	37.56918454327744
O	28.06341249150575	14.665570234503102	36.76408208274537
O	26.94910670850434	15.352605840226556	37.247953281198704
O	29.263559462369678	16.847076430698213	36.17736753927788
O	27.68477930415523	17.556575252552964	39.751243679010805
O	28.286808852041936	18.842010288216173	39.375221084998664
O	30.330009803886945	17.546004716843612	36.99263327850655
O	30.247511090496502	14.386612140138155	40.128427545883
O	30.491420223223944	14.972543586161947	41.4839530422492
