29

O	21.4045541723216	16.64520952628267	33.70057427494206
O	20.134116154966172	16.38944742877333	33.18749463984263
O	19.283745370817748	17.431730583095636	32.992316842671876
O	19.567221407134006	18.589598911772214	33.63723449013747
O	20.86500220711816	18.771291372531024	34.15376118515697
O	21.848966911598815	17.91584458251722	33.55544396445791
O	23.2248614475068	18.122803345689153	33.688953542832564
O	24.199181599984456	17.103877119266336	33.43074730620449
O	23.620427645656783	15.897153345164654	33.413950330000254
O	22.307120497077104	15.6518351856975	33.54310804835336
O	18.445517078553447	19.450910151323622	33.86799634968144
O	17.313279364565574	19.423083733641164	33.30581643159374
O	18.238072422104644	20.476398872643976	34.751987251728565
O	24.533366480789006	15.018683327537044	32.74998027017339
O	25.712847403067535	14.844477645786	33.1836156203071
O	23.743995127418593	13.968209706520945	32.149315983609014
O	24.50734635601726	12.760488165479224	32.02702903846256
O	25.27083101592862	12.51242894236684	33.1673785015851
O	26.223349476802575	11.482886858904003	32.798752213292836
O	26.892342992741916	11.659108327274645	31.59383346579769
O	26.46470683924421	13.008860382450349	31.151456192461463
O	25.193337376592872	13.084521770993412	30.90167327547892
O	28.018516766693647	10.718200760736416	31.45549997080102
O	28.812414508242775	11.108192133696491	30.248880043217568
O	28.837199021095547	12.554691366479135	30.517103847516697
O	27.593994627855043	13.070456825230883	30.104769068868887
O	26.896523585325696	12.518018611662978	28.923637981698047
O	28.125132977114106	12.015058768303746	28.165972164755335
O	26.27380780482563	11.198266989218656	29.38590573503512
