18

O	30.94529929284408	15.802171871420354	32.90390091310171
O	29.751650180933673	15.264517987463083	32.23162336400635
O	30.27290942137322	14.112831463818097	31.491855188724696
O	31.176507186620928	14.462063518412151	30.392741268930422
O	32.314430648126596	15.115351074195019	31.039064237439526
O	32.00867429017007	16.176224078593602	31.963257526312738
O	31.24479678574135	15.181694450276375	34.16127670025444
O	30.309684152512045	14.239388432269731	34.84708050941492
O	32.45319542170341	15.057915246854353	34.44337916948909
O	33.61864888406528	14.679891666112901	30.715392155407894
O	33.83414012298988	13.436647943939812	29.92911792258849
O	34.52636638141611	15.536808055892966	30.677416754708258
O	30.685762026009982	12.982321610921794	32.27289019477624
O	29.833211554741382	11.760127877184795	32.13327604766578
O	31.92126266656204	12.759780030051314	32.45945319426654
O	31.02957949086204	13.191254110188213	35.64883725979296
O	35.228211442954034	13.34985648114911	29.372139468125432
O	29.222688987924116	11.340760550542875	33.44207995128217
