76

O	-4.596154121923077	3.2785300716153847	4.907437995778846
O	2.7014076380769225	-0.8858506983846153	0.9001760780888464
O	-5.569597331923077	-1.2690383083846153	6.732090525778847
O	-5.000337581923078	-1.9384244583846155	5.494075075778846
O	-6.268282441923077	-1.8605969983846151	4.301519405778847
O	1.8494857180769226	-1.9187762783846152	2.6225111157788463
O	-4.880903661923077	-3.394926908384615	5.897220135778846
O	0.4832664780769227	2.4919352316153844	1.2834542617788465
O	-2.8074890319230774	-1.7604272483846155	3.995219335778846
O	-3.8622383819230777	2.2132254416153847	4.364296435778846
O	-0.7817673689230774	3.5870627516153846	3.0495694457788463
O	-3.5263843219230777	-1.3451841983846151	5.078586785778846
O	1.0667838580769227	1.2747569166153847	1.0695622847788464
O	-2.0703688989230775	3.616494691615385	3.456598905778846
O	-0.17494933192307727	0.11183307361538475	2.6608023957788465
O	-2.8957583019230775	-0.4264118383846154	3.284136865778846
O	-3.2220730419230774	0.07424982761538468	5.319500245778847
O	-0.3460227719230773	2.4994513416153845	2.3842502657788462
O	0.9643440980769225	0.2454388676153847	1.9649492857788462
O	-2.5689551519230776	2.4490753516153845	3.9603849157788464
O	-0.9165514849230774	1.2931090396153846	2.7710107857788464
O	-1.6817222799230773	1.4259254356153848	3.9421869557788463
O	-2.0723919739230774	0.1546802746153847	4.446605365778846
O	1.9638013080769225	-0.7592213383846154	1.9220184557788462
O	-2.689322351923077	-6.332109938384615	-4.557990454221153
O	-2.1006444669230775	-8.713283748384615	-7.495327724221154
O	2.570851478076923	12.719121891615384	-0.18139108422115358
O	-0.5366615679230774	12.758871991615385	4.385363285778847
O	-3.085135991923077	12.804172691615385	1.5314631667788463
O	1.8127033880769228	4.7160340516153845	14.639778805778846
O	3.2358767080769226	3.372355741615385	11.402467805778846
O	5.975117948076923	5.735964041615384	10.256106925778846
O	-2.3592369219230775	3.1590176516153847	-8.452528874221153
O	-6.131413561923077	2.8906100216153847	-8.120595614221154
O	-5.802428421923077	1.4680701896153847	-4.549584244221154
O	-7.394893661923077	-1.6742800483846154	-3.0809025142211537
O	-6.818333951923077	-5.079564518384615	-4.782209334221154
O	-7.288952301923077	-6.916159668384616	-1.4755924542211538
O	-7.082951711923077	-5.852548388384616	2.1058845657788465
O	-10.746609591923077	-6.928978848384615	2.6651068257788464
O	-14.010373811923078	-1.5960264883846151	0.4821485807788464
O	-14.141084311923077	-0.44558085838461525	-3.1629247342211535
O	-11.176478721923077	0.5153935726153847	-5.345104324221154
O	-10.722825221923078	-0.9702336583846152	-8.881175454221154
O	-5.729876821923077	1.4848994406153846	-13.215677594221154
O	10.377879288076922	-2.2977307783846155	11.069065305778846
O	13.105643188076924	3.4419037516153845	1.2207185057788463
O	11.660489288076922	-0.07834605838461539	1.6120599877788464
O	8.435459048076924	-5.638877278384616	-1.5319828842211538
O	4.741000338076923	-11.383832108384615	-0.3303569042211535
O	2.0188947280769227	-11.732589108384616	-3.0292333942211536
O	1.9845202680769225	-8.238352818384616	-4.464303874221153
O	2.2979719380769223	-4.727942828384615	-3.094729794221154
O	0.7152014680769228	-1.1668739683846154	-2.9133830742211537
O	-2.2160584239230774	-0.8324608983846153	-0.3295643342211535
O	-4.556959061923077	1.8197740996153846	0.8312059702788464
O	-5.530343981923077	4.238723781615384	-1.9889642542211536
O	-2.1044314709230774	3.9495031416153847	-3.6623100542211535
O	-0.44643501192307733	6.634007721615385	-1.4406363642211537
O	1.3423112880769226	9.587389071615384	-3.0101402142211535
O	1.8007479180769226	7.5614443816153845	-6.169905214221154
O	6.622023338076923	8.058307741615385	-3.3063235442211534
O	4.078813288076923	5.632426591615385	-1.7143299242211536
O	4.004868898076923	6.593574491615385	1.9824542657788462
O	3.291156458076923	3.8114067816153847	4.596040485778847
O	3.110958938076923	0.12473058161538475	5.513330065778846
O	1.8545996980769226	-2.485410798384615	7.979397815778846
O	-0.9606220419230773	-4.336192968384616	6.196992385778846
O	-0.7417753099230774	-4.9675782783846145	2.3990188357788464
O	1.3534005080769227	-7.811580328384617	1.0088488917788463
O	2.010538538076923	-9.137696008384616	4.465734345778847
O	6.283102138076923	-5.845243038384615	6.285779185778846
O	7.494220268076923	-4.019513478384615	3.0981222357788463
O	5.9756687980769225	-0.9875656583846153	1.5098451127788464
O	7.7563584980769225	2.1181872816153846	2.7211099057788464
O	8.463471048076922	5.000661861615384	0.3291249697788464
