29

O	23.686341053580126	15.645776976434993	33.71370603981575
O	22.35529388719664	15.498749785325051	33.55009627561963
O	21.4019332339164	16.493927536180756	33.78877728726446
O	21.84730825628352	17.775687712648004	33.802244956575855
O	23.148786875348236	17.911706723608575	34.30931252616493
O	24.10944489270466	16.906202931311757	34.01084215385894
O	20.23613042577576	16.34142582924138	33.04232876567155
O	19.322990227517696	17.33599051453719	33.06343752760357
O	19.63641065947787	18.534108079191046	33.59095745968989
O	20.833682530394103	18.638171347586113	34.300999566761874
O	18.53492633929447	19.43160079818559	33.81009947504464
O	17.334619287580068	19.345804045567995	33.431501266624046
O	18.466838702229182	20.45297086171789	34.72765326524834
O	24.745875483545106	15.401429717628854	32.71562734549521
O	25.946005724239793	15.394769361090269	32.94829380109073
O	24.087167974125524	15.301909491862473	31.44684413490174
O	24.78608078575968	14.705026437927833	30.414383707145923
O	24.09171335697882	13.822734682201123	29.70527338707509
O	24.268318490810344	12.477703489074669	30.019756885092992
O	25.380763960139483	11.83809108259101	30.626846744225663
O	26.14625645182315	12.948904861851426	31.1346924345699
O	25.96575725710248	14.244479607284974	30.897666294222663
O	24.665664411963842	11.240067397401232	31.882841932435547
O	23.968377479180035	12.605799469317601	32.79436082562649
O	25.611357911342253	12.340520817718968	33.18014640883455
O	26.65549629120915	12.465881511494368	32.41494365353534
O	27.963390763885677	12.930996983491955	32.764444000508675
O	28.644372737881973	13.70888303413792	31.62630809143549
O	28.68787916328342	11.560218304473345	32.64355952362485
