34

O	-3.7518940425187504	1.0665771674999995	7.269932986624999
O	-3.10419131151875	0.4942300694999995	6.078829726624999
O	-4.19510369451875	0.42485328349999946	5.103920996624999
O	-4.68401317651875	1.7304555574999996	4.653506100624999
O	-5.21722613651875	2.3647800374999997	5.858787896624999
O	-4.35730381551875	2.3792920074999997	7.013515016624999
O	-4.39167792651875	0.10150377669999947	8.115506626624999
O	-4.22385330951875	-1.3728356125000005	7.939832506624999
O	-5.438980476518751	0.47078585149999946	8.682885226624999
O	-6.514470646518751	2.9219771674999997	5.813381296624999
O	-7.4146037565187495	2.6649542574999994	4.658384238624999
O	-6.7260911265187495	3.9601991774999994	6.474449156624999
O	-5.22067659651875	-0.5460494825000005	5.357028726624999
O	-5.26820410651875	-1.6941315825000005	4.397997670624999
O	-6.346730926518751	-0.1734288525000005	5.808634586624999
O	-5.44615203651875	-2.1468446925000007	8.347931156624998
O	-8.56947076651875	3.6268756374999995	4.611671822624999
O	-5.06051506651875	-3.0162768225000005	5.083834126624999
O	-3.6415400802187503	-11.8735464925	0.4564336266249991
O	-0.95664536651875	-3.3171612225000002	-7.097214283375001
O	-1.8212412465187502	-2.2440711525000006	-3.468120183375001
O	-2.8348647985187503	-5.818477032500001	-2.6719027333750014
O	-5.73581207651875	-5.707080002500001	-5.276132963375002
O	-6.61846962651875	-2.0174503525000005	-6.061583413375002
O	-9.678402166518751	-2.0348621625000005	-3.745485943375001
O	-0.43014053651875006	5.628791807499999	-2.3165675833750012
O	0.8301579134812496	8.4590421975	-0.16186581337500128
O	1.1798571234812503	8.3622587275	3.691361946624999
O	4.095655353481249	5.942518067499999	3.4689326006249988
O	5.17712555348125	5.817619827499999	-0.1621020433750009
O	3.45766344348125	3.5966580174999994	-2.758719073375001
O	2.6865099634812495	-6.9539657125000005	6.6679568966249985
O	7.39484072348125	2.4038287774999993	8.387837656624999
O	6.89530582348125	-0.24410329250000057	11.047171306625
