75

O	3.9493033063920753	-2.597418504245283	-1.1321347859981128
O	2.8032704463920752	-1.970658204245283	-0.6781868889981126
O	2.678559766392075	-1.981419284245283	0.6942651830018873
O	3.0587300463920752	-3.0276485342452832	1.4572436650018874
O	3.8944613163920754	-3.907411454245283	0.7760414650018874
O	4.044450786392075	-3.914916354245283	-0.6594221539981127
O	5.623946166392075	-3.362791614245283	-2.6471606449981127
O	1.8151768963920751	-1.0361297172452828	1.1621042250018874
O	0.9958176663920754	-1.2612341442452828	2.231596205001887
O	1.5665601963920752	-2.098807954245283	3.1594564550018873
O	2.7075973163920755	-2.857741554245283	2.811539675001887
O	1.0467644463920753	-1.8889908742452828	4.487439415001887
O	0.37639709339207533	-0.8772985212452828	4.904783425001888
O	1.1549492263920753	-2.663842744245283	5.618300045001887
O	4.452441986392076	-2.486899574245283	-2.552113374998113
O	4.233089756392076	-3.694308894245283	-3.280364524998113
O	4.460852556392076	-3.926531544245283	-4.741969134998112
O	5.113942176392076	-2.868573314245283	-5.377345084998113
O	5.644386596392076	-3.143597364245283	-6.607413074998113
O	6.307337246392076	-4.3652377942452825	-6.692584564998112
O	5.581058406392076	-5.422488104245282	-6.153778594998112
O	5.1373379363920755	-5.144477784245282	-4.866118744998112
O	6.739507996392076	3.854837365754717	10.082223015001887
O	4.354420646392076	6.4469656957547175	-5.703202584998112
O	2.2138911963920753	9.155572425754718	-4.123362054998113
O	-1.1255062236079247	10.373460225754718	-5.363735724998112
O	-3.3768010436079248	6.894416885754717	-7.456902934998112
O	-3.1001741336079247	3.048691725754717	-7.614042774998112
O	-2.821717783607925	1.0452627557547172	-10.886233884998113
O	-0.08204830438792467	-1.2559304142452827	-9.353536954998113
O	2.3945031963920753	1.5994860157547173	-9.347765604998113
O	0.8580082463920754	-1.4659479242452829	-14.749337784998113
O	4.344180046392076	-2.650450744245283	-15.757222684998114
O	-2.7138418036079246	-8.800507064245283	-8.116909794998113
O	-2.895207043607925	-11.940947974245283	-6.018204704998112
O	-0.23880777160792466	-13.025563674245282	-3.403796044998113
O	-1.2240539136079247	-10.204092474245282	-1.0746423869981128
O	-4.487198253607924	-8.764445184245282	-2.3965667949981126
O	-4.701458863607924	-6.152539734245282	-5.199169034998112
O	-6.215903383607924	-0.8233526602452829	-7.672236374998112
O	-5.789914043607924	4.855237965754718	-11.674389184998113
O	4.007236756392076	9.577973215754717	2.001561155001887
O	7.757397706392076	9.362248135754717	1.2347951850018875
O	7.787609176392076	5.5722326957547175	1.9119789650018875
O	10.128164006392074	3.561120715754717	4.166062255001887
O	10.934063506392075	-2.335822364245283	7.073725815001888
O	-9.858936863607925	-8.831733284245283	1.6887270450018874
O	-10.887986093607925	-0.8863704282452828	3.4225436250018872
O	-8.595704183607925	-1.8797020842452827	6.2962043950018876
O	3.547806756392075	0.9845106157547172	15.993846315001885
O	2.659018576392075	3.080167765754717	12.962243215001887
O	1.5164509963920751	2.304843525754717	9.372682285001886
O	2.084495186392075	2.958580105754717	5.6502700450018875
O	4.904349306392076	0.9677684957547172	4.168014585001887
O	6.568764026392076	0.3219324677547171	0.6681079740018874
O	6.842132526392076	3.652806515754717	-1.2150662249981128
O	3.582114216392075	5.100691045754718	0.2809257820018873
O	1.3080807663920753	3.339006845754717	-2.3311008149981127
O	-1.1566519736079248	5.283587185754717	-4.372387194998113
O	-1.1462939336079248	8.010407125754718	-1.7043818449981125
O	-5.904318523607924	4.952912905754717	-1.5832141649981126
O	-2.7835988036079247	3.045299205754717	-0.22681698609811268
O	-2.864796343607925	-0.3855682082452829	-1.9145570149981126
O	-1.4407161036079248	-3.460083704245283	-0.01567693299811268
O	-0.5190079736079247	-5.142488614245282	3.292687415001887
O	1.4432391363920751	-7.934786804245283	4.951260905001887
O	4.660740926392076	-6.485966524245282	6.4395651950018875
O	4.726183866392076	-2.888455484245283	7.860662545001888
O	3.2731331463920754	-2.164533104245283	11.324210315001887
O	2.9686589663920753	-5.8477073742452825	12.028875715001886
O	-3.6177744036079247	-3.825211324245283	8.741691315001887
O	-2.9204359136079248	-1.5343254742452828	5.844392745001888
O	-5.333082983607924	-2.241772704245283	3.039647325001887
O	-6.847158603607924	0.6219925437547171	0.9753180550018874
O	-8.955055613607925	0.9562931547547172	-2.1977646949981127
