80

O	-6.398823781758182	6.37479214869091	-2.205566143905455
O	-2.841590556758182	1.9712221846909093	-0.7497670069054547
O	-4.905892241758181	1.4489557426909092	-0.2467085899054548
O	-7.860333891758182	5.94093875869091	-2.020362853905455
O	-4.344435101758181	3.6864744686909092	-0.8273875469054548
O	-5.667563241758182	5.113460778690909	-2.2545481039054547
O	-3.6377649497581817	-4.077419201309091	0.6635674960945452
O	-6.309836831758181	7.45982015869091	-1.2120793649054549
O	-4.054278871758182	-6.230190481309091	0.046661051094545214
O	-7.610807121758182	6.1366123486909085	0.3138304150945452
O	-2.030267002758182	-5.7863037713090915	0.8859159360945452
O	-7.721974841758182	5.153432128690909	-0.7805525969054548
O	-6.229250091758182	6.731048638690909	0.042937967094545226
O	-6.880441941758182	3.9576600386909093	-0.8113705219054548
O	-5.346809741758182	5.6053716986909095	-0.06343372290545479
O	-5.465388521758182	4.4220567886909095	-0.9366317849054548
O	-2.660779711358182	0.8216399756909093	-1.5648998739054547
O	-4.104287631758182	2.3993080186909093	-0.3029221189054548
O	-1.916857120758182	-1.2087927113090906	-0.6293351619054548
O	-2.9445852917581816	-0.32410609130909074	-0.7160754509054548
O	-4.113091091758182	-1.0357038813090909	-1.0699905509054548
O	-4.362234201758182	-1.7718589813090908	0.07287041309454517
O	-3.391272247758182	-2.8057662613090906	0.1520267070945452
O	-2.158434533758182	-2.223197451309091	0.18255484209454526
O	-3.1614758367581817	-5.1907779813090915	0.3046362320945452
O	-3.9848514017581818	-5.642444801309091	10.067366686094545
O	-0.6922907417581818	10.808416978690909	3.671018556094545
O	1.7653234482418183	7.886721808690909	3.281657946094545
O	4.899992408241818	6.366452638690909	4.757147736094545
O	8.29065271824182	6.405039448690909	3.199221946094545
O	11.643272118241818	7.11926992869091	-1.3076736209054547
O	7.921791918241818	6.36681126869091	-1.3973315699054547
O	5.292592948241818	5.570001418690909	-4.041866453905455
O	4.267872418241819	7.967377338690909	-6.8522065839054545
O	0.616489588241818	7.1099091386909095	-6.3645571039054545
O	0.6844566882418182	8.98286476869091	-2.962536383905455
O	1.342601458241818	12.352063648690908	-4.716308053905455
O	0.48856787824181813	12.133126548690909	-8.508631313905456
O	-2.772023549058182	14.063535048690909	-8.049317923905456
O	-2.5271344767581816	2.7525815886909095	-12.568717213905455
O	-4.6302154917581815	-0.1064615413090908	-13.935334813905456
O	-7.640123781758182	-1.853595371309091	-12.227338813905455
O	-5.596163231758181	-3.1618063313090903	-9.389564923905455
O	-2.0366561887581818	-2.8591539613090906	-10.658498913905456
O	0.15393294824181813	0.2681494436909093	-10.251102153905455
O	3.0562920382418186	1.8023213166909091	8.811482486094544
O	0.3830237782418182	3.9116070886909093	10.465266786094544
O	-2.287760396758182	2.284526478690909	8.233811776094544
O	-5.640569321758182	0.7165455136909092	9.221409686094544
O	-10.673025561758182	-2.9732396313090903	6.629352346094546
O	-5.525940481758182	4.842231278690909	11.932181086094545
O	3.082349948241818	2.955363528690909	14.751940486094545
O	6.8361997282418185	-8.217493931309091	-5.758468003905454
O	4.104217248241818	-10.111516151309091	-3.882232553905455
O	1.4615798382418186	-12.205250051309092	2.363162946094545
O	-4.441116431758182	-12.833035351309091	9.052412506094544
O	-1.9695052537581819	-9.986326251309091	8.601650816094544
O	-1.1443511717581818	-7.515049441309092	5.780969486094546
O	-0.602395601758182	-3.869939691309091	4.810365356094546
O	-3.7091582917581816	-1.969969661309091	4.289568346094545
O	-4.723507081758182	1.5315568186909092	3.426897316094545
O	-2.3410118557581816	4.14203228869091	5.051965946094546
O	0.5845694882418182	1.9406415126909091	4.674072456094546
O	1.406556888241818	2.8708263886909093	1.0161092460945453
O	4.777181888241818	4.188124348690909	0.0902774220945452
O	6.171501458241818	2.6139860386909093	3.227643036094545
O	7.654898318241819	-0.2890608813090907	-1.3556203589054547
O	3.908757768241818	-0.6985404913090907	-0.4165152201054548
O	2.005283078241818	-0.16363286130909072	-3.692008773905455
O	-1.4191442817581819	-2.0368253613090905	-4.090224643905454
O	-3.6488886747581817	-4.959704181309091	-3.183504213905455
O	-7.084908321758181	-6.44173123130909	-3.414721603905455
O	-8.658905341758182	-6.03334081130909	-0.006026737905454771
O	-6.675485491758182	-6.2838884613090915	3.230594536094545
O	-5.645953721758182	-9.668906151309091	4.520832556094545
O	-1.2799234017581818	-10.684388451309092	-1.5086971839054548
O	0.11214864824181836	-7.265977911309092	-0.8871204869054548
O	1.908553498241818	-6.04305955130909	-3.960734193905455
O	5.157062278241818	-4.05595343130909	-3.691171283905455
O	7.3732871182418185	-2.021791671309091	-6.080348393905455
