43

O	23.932987247699877	17.40439385739762	32.9384085372828
O	23.20988011258605	18.466119044812462	33.3335987940091
O	23.6215759591974	16.746151016719235	30.77767415746018
O	23.876841937281807	16.354384378219674	31.962724916754926
O	25.000479718658838	15.395017060862084	31.842093360340257
O	21.475446153746645	12.655384147133732	32.33819818779606
O	24.711869785099424	14.227400411891193	31.08205695365924
O	22.248854210450823	14.896410225421768	31.48057464302026
O	23.61791769058602	13.821451445652746	33.00423346352485
O	23.369991073319234	14.052794739565272	31.77150019564782
O	25.058992177063864	18.12546028972654	32.25603240704808
O	24.373963775249138	20.415439212267433	35.051856893254694
O	21.208900553171794	14.923731802518997	32.46232931041764
O	19.073215783895254	19.287251975741697	33.24320312956673
O	25.262125839221603	18.912462662826112	34.73098844819771
O	21.38930589177914	13.616736435852562	33.044964705646876
O	18.223892459926663	21.51716436934153	33.503884042149366
O	26.01038383698193	15.350944127057431	32.878706879998056
O	17.01333139681506	19.733173135293093	32.48323122559785
O	26.185900085854698	17.837147503986813	32.699422486353406
O	26.54591310468847	16.604328138319687	33.315412521462676
O	27.235756926330517	18.652019537716146	32.23861695887921
O	27.23465625216152	19.01626867033432	30.92995465020949
O	28.399281101987498	19.33070016597242	30.29095942394121
O	29.636753277090275	19.22735411107968	30.863019885708432
O	29.689829515836795	18.709521618000554	32.12690074882569
O	28.513433917089067	18.387685377341082	32.73717933289533
O	27.940356175928976	16.64303447942385	33.60477111919068
O	28.693350425264544	15.475119816516406	33.6423030205608
O	27.968879512918384	14.323729753695321	33.56167474145628
O	26.748196091213387	14.215225036460968	32.88852149055783
O	20.81559653054657	16.11162580156416	33.183629186457274
O	20.318593398279177	17.279907622546126	32.41783667281425
O	19.03387159862713	17.938743037660732	32.76890309770401
O	18.21642947824508	20.219141327020324	32.96849826653683
O	24.86063659652387	20.728211149035427	32.56721138730044
O	26.03250483580591	21.44185994135874	33.209928922519886
O	26.995278886230835	21.943463188433448	32.409402369800915
O	28.346123731954894	21.814241705544497	32.55814266466764
O	28.72307457057989	21.430132785128315	33.81446639923702
O	27.860152139676465	20.887233209262636	34.721917619192645
O	26.523927462574353	21.00879541013947	34.45570574502236
O	24.28658058518264	19.699082345393485	33.80720966581658
