31

O	38.84020046055756	31.65955876676219	13.809192340251277
O	38.79443115935531	32.49939149071456	12.662148161382552
O	37.56781515969736	33.074423813191366	12.479907266248452
O	37.38102068839763	33.900516755544395	13.592721637964056
O	38.093719214847106	33.705957604663595	14.659542039546947
O	38.393143202702426	32.39012361554686	14.855388516173242
O	36.85991684941513	33.93213946300288	11.500055371786361
O	35.782977126010664	33.347596580620824	12.35446047213392
O	35.58767285045121	34.868885884844794	12.718835729381475
O	36.801609444570914	35.24199198162499	13.42958413737231
O	38.724113286464686	30.33061448421817	14.073748446377733
O	39.23759202827195	29.50673545122356	13.13106167899511
O	40.13565735672671	28.610451822726326	13.586394286677747
O	40.721523438930376	27.663993143803584	12.74096182002389
O	40.596268414321116	27.8929828746234	11.43889219609032
O	39.831076089921844	28.91817376609314	10.989382401319093
O	38.98696487235857	29.599749558119722	11.80376141259686
O	40.329500426540754	28.620191550517664	14.926795269881813
O	41.41959996289618	27.885301179385078	15.236716890604436
O	41.62368558719788	26.695026312127588	14.605266110005026
O	41.64656059009677	26.71876781206972	13.234812473827558
O	42.229465544220055	28.1420864582088	16.270977060572733
O	42.13050245906035	25.731429919768765	15.399418098594257
O	42.20708935798047	25.966815530614788	16.77742402278902
O	41.736523112256926	28.978288154994	17.210844732637653
O	37.6363261588183	36.46875779139142	13.419980185181704
O	37.11648418133219	37.824202849949145	13.174051844694604
O	37.88161750992475	39.05345566220262	12.96071256996264
O	38.820012375308195	36.4261619082216	13.103119594689446
O	37.66179113611599	40.109596051124	11.969481518981112
O	37.974998807885946	40.417405654320575	13.294887428663499
