30

O	37.74878763637709	43.257221231844085	10.890382180111974
O	39.74451841589467	28.009230311149476	12.099621454427403
O	37.2114252705339	33.17719371964789	11.765460585544297
O	38.254785011759026	42.52107586507201	9.878159872914024
O	38.61160857977933	30.734427734828543	15.37951502676775
O	38.78317931880933	39.196808244479975	11.660719458246279
O	38.08115909067414	42.83205155060661	12.141155563887285
O	39.40240477583266	32.36296490271527	13.915633658709993
O	37.52237771660518	29.162106589813224	14.297736332579863
O	37.44203569583878	34.20107566578435	13.32867996615086
O	38.51550019691812	41.208286299635375	10.155486251247675
O	38.57724553394544	41.56491235156352	12.227381306970083
O	37.3689583975716	29.975452543694658	13.173566788027308
O	38.37249288915381	35.83329798969305	11.60333254423831
O	37.11873763540275	36.573421467817596	13.323907951093673
O	38.01872344619697	37.09450723470833	11.132208846714457
O	37.568820898137865	37.81493616106095	13.096780863961076
O	39.493825909029475	30.192400217593665	11.118191491348776
O	40.46845332414971	30.148610358223685	12.935945573675285
O	38.45573490806514	29.332061161514662	15.260867665496225
O	39.61479072315169	28.76664986056356	11.053141176716238
O	40.565348436795084	28.708012366713465	12.817815586984889
O	39.4805480423127	32.59017307865646	12.453531316954729
O	39.45773202581416	30.957190522418138	12.232254615225695
O	37.818194596628246	35.52926205364813	12.788766000783893
O	38.5810521123555	40.476138437445215	11.330276767348186
O	38.4303007948207	37.95351414917636	12.063961497445753
O	37.54453628485657	31.42734721534519	13.413827334231897
O	38.78318853055466	31.14585974353075	14.152479277221978
O	37.303848724232786	32.77331258234079	12.92691741330038
