113

O	-2.2695349900256407	6.156635571064102	6.66096014434359
O	2.1429199099743594	-1.8708601789358972	0.4456566483435893
O	1.7122060899743594	-0.6067111989358971	0.9899263643435894
O	0.2955859619743594	-0.5361790689358972	0.7005081663435894
O	-0.36024276602564065	-1.3385474889358973	1.7005684943435895
O	0.46690554797435935	-2.2414293289358973	2.1964085443435892
O	1.3729545199743594	-2.683612858935897	1.2287178843435893
O	-0.37508836002564067	0.8394934740641029	1.2189593843435893
O	-1.2977139700256406	-0.027192698935897264	0.3924448533435893
O	-2.046301890025641	0.2858405510641029	1.8313015443435894
O	-1.2472153300256408	-0.6314663289358973	2.6120427643435895
O	2.2996509699743592	-2.597408368935897	-0.6811452886564107
O	2.7295644099743592	-1.950054028935897	-1.7855870756564105
O	4.02283776997436	-2.171490268935897	-2.0695400956564107
O	4.548071899974359	-1.6498754389358972	-3.222973475656411
O	3.9777718099743593	-0.5557462489358971	-3.6847388656564104
O	2.8283990699743593	-0.11038124893589707	-3.1111431856564105
O	2.0958295499743596	-0.8316962489358972	-2.216900725656411
O	4.6563234599743595	-3.1693703489358973	-1.4054552256564106
O	5.832528719974359	-3.5279143889358973	-1.9412688856564106
O	6.17775453997436	-3.266377898935897	-3.2280722756564106
O	5.699247829974359	-2.134060748935897	-3.8458943856564107
O	6.59991743997436	-4.442329238935898	-1.3600762456564106
O	7.95450992997436	-4.570427758935898	-1.5964359656564107
O	7.312961679974359	-3.831971168935897	-3.6599153356564105
O	7.69335044997436	-5.008794768935898	-4.21485868565641
O	-0.7227510660256407	0.17717068106410294	3.7580289743435893
O	-1.9238184300256407	0.7180167920641028	4.27831526434359
O	-1.9321531500256408	1.985727877064103	4.666989084343589
O	-1.6614096900256408	2.3246940110641026	5.99951315434359
O	-1.5883291600256406	3.5934425110641026	6.564373344343589
O	-2.3377249900256407	4.567787951064103	5.9845343043435895
O	-2.0697815300256406	4.471488461064103	4.619343274343589
O	-2.427115970025641	3.175339221064103	4.173435884343589
O	0.24075212197435936	0.9252394930641028	3.8289554443435896
O	-1.9851807100256407	-11.777740088935898	-9.198187355656412
O	1.7852931499743594	-11.818025988935897	-9.170112115656412
O	4.6700149799743595	-12.370190588935898	-6.8571707256564105
O	4.368959799974359	-11.839618288935897	-3.0557342256564106
O	5.44184823997436	-8.580754418935898	-1.8048666556564106
O	5.017292299974359	-9.429093088935897	1.7531741743435894
O	3.5831773999743595	-11.948979588935897	4.2942388743435895
O	-3.3204318700256406	-12.481539988935898	8.26555006434359
O	-2.4753275300256408	-13.006701488935898	4.64383543434359
O	-0.24291992502564064	-11.149740288935897	2.2562175843435894
O	0.47145005597435935	-8.277466258935897	-0.07877483945641066
O	0.8387501639743593	-9.310356588935898	-3.6978641156564107
O	1.9640017299743593	-7.353303508935898	-6.715139475656411
O	-0.34378181702564065	-7.583542078935897	-9.663419765656412
O	-1.5694912800256406	-6.391047618935897	-13.03964219565641
O	-4.925914190025641	-4.632790528935898	-13.076865295656411
O	-6.652849500025641	-4.116273898935898	-16.39963189565641
O	-1.1536869100256406	-1.042858328935897	-14.644470595656411
O	0.9587553649743594	-2.750588968935897	-11.97342639565641
O	-0.5426870890256406	-2.5224959189358973	-8.55028607565641
O	-0.17753095502564065	-3.8883562089358974	-5.015327835656411
O	-2.9804151400256407	-5.9188989289358975	-3.4496207056564105
O	-3.6777564000256406	-6.733083248935898	0.19679622534358934
O	-5.875304160025641	-9.823800788935898	0.7647155043435894
O	-9.24917833002564	-4.878330498935897	10.096216604343589
O	-8.76491420002564	-5.116978778935897	6.36427778434359
O	-11.299682260025639	-0.7864785889358972	8.18040846434359
O	-7.963768130025641	0.07916248106410273	6.407227274343589
O	-10.05977846002564	0.16378085106410278	3.1579012843435894
O	-12.73929846002564	2.224724143064103	4.869709264343589
O	-10.17955616002564	4.662903141064103	6.2486003943435895
O	-8.15618843002564	5.122586341064103	3.0259311443435895
O	-11.393511760025639	6.188941131064103	1.3380140243435894
O	-12.27713556002564	8.506593691064102	4.1969694743435895
O	-8.87385751002564	10.106542581064103	4.31296924434359
O	2.6201268999743594	11.298785811064102	0.22654257334358935
O	0.34922825597435936	8.385417191064104	1.2761653143435894
O	-0.16038357702564066	5.374514701064102	-0.8056741996564106
O	-3.0463216000256406	5.9594902610641025	-3.2437832656564107
O	-6.01586460002564	3.6456743610641027	-3.1854397356564106
O	-7.2030769700256405	2.530904631064103	-6.648425135656411
O	-9.91397596002564	0.08175416106410283	-5.64742226565641
O	-7.466885760025641	-3.7289819889358973	-1.1733288556564105
O	-5.76585262002564	-2.302481008935897	-4.30189896565641
O	-3.215589960025641	0.5699278130641028	-4.42265865565641
O	-0.5235542400256405	2.124619940064103	-6.58525300565641
O	2.6011550999743593	-0.05824414893589713	-7.087641615656411
O	5.823566639974359	1.590001402064103	-5.69667955565641
O	8.378612779974361	0.08837565106410294	-7.92737554565641
O	11.51683263997436	1.0059132230641028	-5.89787910565641
O	10.482105539974361	-0.6167458689358971	-2.5649049856564106
O	10.91019033997436	0.5063890810641029	1.1028200443435894
O	3.7098077799743594	16.208269711064105	5.198392374343589
O	2.0071447499743593	12.848795711064103	4.884072414343589
O	1.9563250999743593	12.513713211064102	8.656639014343588
O	-2.129985510025641	14.860045111064103	6.58288571434359
O	-2.854396050025641	11.632142211064103	8.535916304343589
O	-0.20234637102564063	5.112414001064103	11.808276904343588
O	4.1370353899743595	1.727125982064103	12.779216604343588
O	6.022256339974359	4.692958081064103	11.336395204343589
O	9.49120458997436	3.4899082510641026	10.292762404343588
O	10.47506593997436	-0.0860164889358972	6.2879041743435895
O	7.044086939974359	1.4647360110641028	5.923144924343589
O	7.97882878997436	4.292445191064103	3.5525912443435894
O	8.11418900997436	3.444097031064103	-0.19435484265641068
O	10.07666113997436	5.197175131064103	-2.9213410456564106
O	8.14964176997436	6.151621781064103	-6.076979905656411
O	8.96539034997436	7.965037861064102	-9.351773495656412
O	8.33333351997436	10.873985511064102	-4.279518465656411
O	7.962565429974359	9.002883111064103	-1.0279007456564107
O	4.7340205499743595	7.500434441064103	0.30219105034358934
O	3.682995519974359	6.406422971064103	3.7165122643435895
O	2.527847809974359	2.968024191064103	3.6944123443435894
O	1.9302989299743594	-0.18487441893589707	5.822906734343589
O	2.688820469974359	-3.9147174289358975	5.1755450843435895
O	0.6670060349743594	-5.215041538935898	8.117364264343589
O	-3.0407934400256407	-5.164721058935896	9.20359228434359
O	-4.01671414002564	-1.7683795789358974	10.581771604343588
