102

O	1.8678108851111108	-7.453942038529166	2.967030179091667
O	-2.0069241058888894	6.479071851470834	-2.399903840908333
O	0.849625725111111	2.2723074414708337	0.316587724091667
O	1.8812239451111108	-7.168171538529166	1.647677059091667
O	-2.447511114888889	5.102308561470833	1.7688241990916669
O	0.1772930051111108	-3.7618310485291664	1.678307929091667
O	0.8992351551111109	-6.823913428529166	3.688555719091667
O	-2.2040411548888894	3.0001373214708336	0.7982372390916671
O	-1.1242307819888893	6.572229251470834	0.811157699091667
O	-0.04499608488888929	1.6655365654708336	1.8582268390916667
O	1.3829644251111108	-5.947444058529166	1.287315239091667
O	0.3031525451111108	-5.7579515185291665	3.0822644390916674
O	-0.33358807688888914	5.566925991470834	0.251625965091667
O	0.21405295511111078	-0.5451236385291662	0.612193498091667
O	0.47462933511111083	-0.45127776852916623	2.849012139091667
O	0.8858308651111109	-1.7433504585291661	0.8374179290916671
O	0.33416419511111073	-1.7826868085291663	2.9050469790916673
O	-1.0671107612888893	4.265322421470834	-2.308543650908333
O	-2.835159494888889	4.516777351470834	-1.275673790908333
O	-2.396648754888889	6.414816761470834	1.239918679091667
O	-1.2820461478888892	5.539485131470833	-2.926556820908333
O	-3.003850454888889	5.7973927414708335	-1.931595670908333
O	-1.4969687558888891	2.389433251470834	-0.351789866908333
O	-1.5303025258888892	3.8538533114708335	-1.107090287908333
O	0.04691906511111088	0.19235857947083368	1.722654289091667
O	0.6494842551111109	-4.980917608529166	1.9568701390916667
O	0.14434353511111087	-2.4090875185291662	1.7219757290916669
O	-0.45862086288888915	4.2347043614708335	0.888888229091667
O	-1.9219539338888891	4.356582821470834	0.8350065090916671
O	0.13353388511111075	2.9235154514708337	1.080645729091667
O	-3.623994184888889	13.876294191470834	4.818716009091666
O	-4.888885364888889	10.867496701470834	2.860968689091667
O	-5.574008684888889	9.087683411470834	6.144151999091667
O	0.5257296251111108	8.053250091470833	12.485349589091667
O	-0.7852028288888893	8.877317711470834	9.020910019091668
O	-0.5765539238888892	8.660849991470833	5.296124009091667
O	0.1378668851111109	11.950759591470835	3.532127719091667
O	0.052637845111110915	12.804486391470835	-0.16063579510833298
O	12.27807094511111	9.737637801470832	-6.970983430908333
O	3.3124730951111108	10.095966741470832	-4.168535860908333
O	1.8751691651111109	8.844575401470834	-0.9681330779083329
O	3.935526285111111	8.643617511470833	2.257499359091667
O	3.4361815051111106	6.648408791470834	5.437304269091666
O	5.172031305111111	7.875120181470834	8.575176959091667
O	4.880933615111111	0.29713104347083363	15.641203789091668
O	5.834966725111111	-2.8160291785291665	11.991935789091668
O	6.441608925111111	0.049027151470833585	9.561628909091668
O	8.51153715511111	-4.710828048529167	8.210557229091668
O	5.877109845111111	-3.307459658529166	5.648863579091667
O	8.87859994511111	-1.6620472585291663	3.894503279091667
O	10.94998154511111	-4.821368178529166	4.1641426790916665
O	8.187644935111111	-7.0046409585291665	2.748194349091667
O	7.187437515111111	-4.746476998529166	-0.179831700708333
O	10.82200714511111	-4.911682918529166	-1.330477130908333
O	10.89008914511111	-8.684496438529166	-0.910859565908333
O	7.616074445111111	-9.233436108529165	-2.736556170908333
O	-2.074546374888889	-4.905164678529166	-9.293287020908332
O	-0.2737489348888892	-4.055856148529166	-6.0764292209083335
O	0.7939531651111109	-0.5276646885291663	-5.225631370908333
O	4.400633635111111	0.1562363984708337	-6.393079460908333
O	7.039293645111111	1.0593776395708336	-3.7673365309083326
O	9.19708544511111	3.9580615114708335	-4.889011420908333
O	11.38722444511111	4.452396221470833	-1.8425008509083332
O	7.589226125111112	4.577400491470834	3.272598199091667
O	6.9618513551111105	6.097994101470833	-0.24507197350833299
O	4.738840355111111	4.670998661470834	-3.0392023909083328
O	2.8437405351111114	5.543750731470833	-6.215204030908334
O	-0.16041286488888917	7.856956061470834	-5.406328160908333
O	-3.5275818048888894	6.534360271470834	-6.334660140908333
O	-5.243982894888889	9.646959391470833	-7.335861310908333
O	-8.831174764888889	8.362378851470833	-7.687479410908333
O	-9.118979134888889	6.897684001470834	-4.182734960908333
O	-10.62915246488889	3.6917430714708335	-2.750409060908333
O	-2.844236894888889	-9.344033708529167	-7.158140760908333
O	-3.914058744888889	-11.701738808529168	-4.362617810908334
O	-2.604268694888889	-14.692980508529168	-6.367379820908333
O	0.6706343451111108	-12.735044608529165	-6.415725830908333
O	0.6199678051111108	-12.058545908529165	-2.649411900908333
O	-0.5544410038888892	-15.582095408529167	-1.7480292409083331
O	1.645379225111111	-13.196573408529165	2.226678539091667
O	-1.6758861308888893	-12.925082408529168	4.113778969091666
O	-3.242247324888889	-9.419033808529168	3.666598969091667
O	-5.643867284888889	-9.744212208529166	6.691526939091666
O	-7.795177004888889	-6.728113038529166	5.669665739091666
O	-8.980754114888889	-7.377970508529166	2.0755807490916673
O	-11.72131815488889	0.4063443324708337	1.184092259091667
O	-8.338572524888889	-1.2187764785291662	0.615789869091667
O	-8.44466127488889	-1.3161264585291663	-3.2215590609083327
O	-7.496978734888889	1.8897629054708336	-5.101215530908333
O	-8.374368034888889	3.088669321470834	-8.560786150908333
O	-5.494705034888889	4.285738061470834	-10.758745910908333
O	-5.253656544888889	5.574965031470834	-14.351556910908332
O	-6.883214924888889	-1.3174629485291662	-9.707091890908332
O	-4.28810376488889	-1.8649730685291663	-7.071711310908333
O	-4.35247804488889	-3.730668618529166	-3.7541720609083327
O	-3.2517000548888895	-1.5302257385291664	-0.8628606369083329
O	-3.6600967248888896	-1.0957324985291663	3.106455219091667
O	-3.9124838248888896	2.1928743714708334	5.064120159091667
O	-3.0519230648888893	0.6343206134708337	8.438623089091667
O	0.07243325511111087	-0.7764135885291663	10.153829489091667
O	0.6901889951111109	-4.3692807485291665	8.995705009091667
O	-8.366707794888889	-13.836359008529165	2.636843459091667
