36

O	40.987389700088336	40.22822727143996	10.045630907351677
O	39.53945489249149	39.936783952659866	9.943061875546725
O	39.208866342371415	38.938633622849835	10.839035708978766
O	37.93450947247482	39.32507621131469	11.558219610003013
O	38.439657239434815	40.6500053888487	11.974763311813785
O	37.81267767698681	41.52144265386045	10.888795156225937
O	38.952641982424026	41.19936308740772	9.982756613813018
O	37.82623373633271	38.306211734868185	12.527754408546773
O	38.41092534092559	37.07429136643467	12.296360421534885
O	38.85613604469383	36.05153272323214	12.89949830968971
O	37.43319614984657	37.10712235287481	11.30522952815239
O	36.677653497526435	36.191755512562125	12.094153710556045
O	37.45556560057894	34.91966844752942	11.763551147137793
O	36.57281300432592	33.84902142997686	12.210980225741453
O	37.0938009973979	33.41174076464845	13.445632802756158
O	36.848482946723024	34.64755036634964	14.180338251392167
O	36.63602826714527	35.982037812663094	13.53067153234992
O	38.397466302275475	33.08197415404632	13.145631700205543
O	38.45746305113865	31.728634132052598	12.906088585755427
O	39.48404032909734	30.581366517025735	13.161171857066217
O	39.21014125928913	29.97722370628682	14.301357609558845
O	39.57703336834333	28.920758965496837	15.014617600023517
O	40.96185749825321	29.303967961565	15.05807296452289
O	40.54081309961962	30.480016166409552	15.778855581231825
O	39.679299132916064	31.431119538478193	14.932072896855288
O	38.31924645017678	31.728212700368463	15.351878850730536
O	37.52852515430636	31.625829854847648	14.128315029896099
O	41.849438850010166	28.24131201513681	15.0952024110383
O	42.26140062422825	26.851558497022033	14.500937697156125
O	41.22297768520766	26.136336497066864	14.951654924316653
O	43.0760434275229	26.239104626199733	15.544945949657095
O	42.98841530321848	26.36645984164186	16.945235041675378
O	41.398888136771824	40.04648852100379	11.278876867343348
O	37.44594322575819	41.04634654233514	12.87867006652554
O	41.31695248522829	41.59759086200478	9.944066420056973
O	41.456818797421334	39.780981582199516	8.894660971798558
