80

O	-1.7342890468599998	-2.095127708328	5.279300076059999
O	-3.17706396386	2.010426611672	0.8307433440599992
O	-1.5816062250599998	-1.0881972383280003	4.426864206059999
O	-2.54557430686	-0.33488040132800023	3.8402341560599993
O	-1.9104210138599997	2.829509451672	-1.1779231139400008
O	-4.79489393386	-1.0882708183280003	4.30505110606
O	-2.18003043986	0.7020147376719997	2.7914261360599992
O	0.14310724614000003	0.022543378671999764	0.5323346408599992
O	-3.13850631386	-2.555634918328	3.632796686059999
O	-3.08184033386	0.8486889366719997	1.6476892360599993
O	2.98395215614	-3.686716128328	1.6302080760599993
O	-2.0313766368599997	2.0927251416719996	0.019386214059999185
O	2.54514124614	-3.2180027483280003	0.3005521860599992
O	-0.54346482386	2.796210191672	-1.6191373139400007
O	-1.71630045886	0.7525679176719997	-0.2565699859400008
O	0.2616483461400001	1.5644343016719997	-1.5365044939400008
O	-0.36846006385999996	0.6798712976719997	-0.6080992439400008
O	-0.56039129386	-1.1682877783280003	0.5215517866599992
O	-0.8329410008599999	-1.7759272483280002	1.7065432360599992
O	0.14281961614000016	-2.6205936983280003	2.541716426059999
O	0.8639042061400002	-3.445682398328	1.6482017260599993
O	1.83754564614	-4.437574168328	2.162629796059999
O	1.69188119614	-4.254315408328001	3.633735676059999
O	1.6384532661400002	-2.285802878328	1.0006354920599994
O	0.6279917761400002	-1.9402956183280005	-0.05760579194000082
O	-4.3811885538599995	0.6350399756719998	2.4508101360599994
O	-4.64999495386	-0.7083890023280003	3.0003547060599995
O	-5.01804419386	-2.409831638328	4.494642556059999
O	-3.33595211386	-1.4017058483280003	3.0114267760599995
O	-2.64829494386	-3.730174828328	3.711599496059999
O	-10.120344963860001	-4.107061288328	-7.080125843940001
O	-10.140606423860001	-5.147950218328001	-3.470134003940001
O	-7.1006989338599995	-6.851115358328	-1.9405148039400009
O	-5.207587763859999	-4.396975698328	-0.03352796694000082
O	-2.9520132438599997	-7.287099628328001	1.145172954059999
O	-1.4203269608599998	-10.687552158328	1.0507321320599992
O	1.86611618614	-12.440283458328	1.4822756060599993
O	3.62214663614	-15.669315658328001	0.6075310530599992
O	4.52115346614	-14.274973658328001	-2.8257531039400012
O	1.27624722614	-12.791713958328	-4.003506763940001
O	-0.5829893438599998	-9.663512418328	-3.113076673940001
O	-1.2723876618599999	-6.058449778328001	-3.568403173940001
O	-4.47081666386	-4.925665688328	-4.929967663940001
O	-6.13138693386	-1.5406802783280003	-5.111802923940001
O	-7.18842631386	-0.6889937673280002	-8.66521502394
O	-8.32304184386	1.8133661916719996	-11.27322687394
O	-6.93663811386	4.737381931671999	-8.02891984394
O	-3.6221509538600003	2.972248551672	-7.670828273940001
O	-2.0584814638599997	0.11349790297199977	-5.773141243940001
O	-0.6939413628599999	-2.8695266383280003	-7.72212033394
O	1.7820040961400003	-5.561377288328001	-6.727284253940001
O	8.27283988614	7.664037481672	-0.8634663739400008
O	5.41002300614	5.889237271671999	-2.5756655539400004
O	1.9615417461400002	0.19450983977199976	-9.93753847394
O	2.0998608661400002	3.009070981672	-7.398215873940001
O	0.042761846140000115	5.921388381671999	-6.118091223940001
O	-2.83214878386	4.743148301671999	-3.883005893940001
O	-2.60134335386	6.167764671672	-0.3866328339400008
O	-6.22913940386	6.2040727316719995	0.6261931560599991
O	-5.84653178386	6.526968371672	4.403391666059999
O	-3.6779486638599996	3.626577361672	5.004431426059999
O	-0.7748886748599999	2.875242741672	7.400905476059999
O	0.16291154614000014	5.407801851672	9.95510411606
O	-3.6958953038599995	2.167142321672	12.17753582606
O	9.774017386139999	10.019715941671999	7.208596026059999
O	8.09686769614	0.7170888666719998	10.99566402606
O	4.762610636140001	2.539724201672	11.39429922606
O	2.9601339061400003	-0.23544964432800022	9.50204984606
O	5.133160716140001	0.6517945986719997	6.485086876059999
O	4.28655259614	4.331876371671999	6.387615006059999
O	1.1183285361400002	5.403809011671999	4.564481886059999
O	-0.9256497898599999	8.555849191672	5.087849546059999
O	-1.8045716698599998	10.507427941671999	1.9724599860599992
O	3.32469510614	10.593316041671999	4.619957906059999
O	5.002005806140001	8.073402591672	2.351678316059999
O	7.5068929761400005	5.319983201672	3.0024181260599994
O	6.256352206140001	2.022182951672	1.4775617560599992
O	6.43871878614	-1.7098874083280002	1.9051786760599991
O	4.664116126140001	-4.4733618383280005	0.8966012180599991
O	6.2678973861400005	-7.388681968328	1.3953931630599992
