113

O	-6.137241997558442	3.6848575231168823	2.0343780371558444
O	-6.1732035075584415	2.206637916116882	1.9598905571558443
O	-4.915177257558442	1.7039725051168821	2.2301856171558443
O	-5.046138117558442	0.5368978531168822	3.184824187155844
O	-5.844404887558442	1.2914176971168823	4.173555807155845
O	-7.2465347375584415	0.8274050851168823	3.785538677155844
O	-7.2898936775584415	1.8722790901168822	2.7222804671558443
O	-3.6972578475584417	0.2494957731168823	3.4810137271558443
O	-2.7091667175584417	0.5849774231168822	2.573179367155844
O	-1.4684380635584418	0.8350210291168823	2.495117037155844
O	-3.4185107575584417	-0.3820969468831177	1.8653863971558442
O	-2.3519869275584417	-1.2875319968831178	2.137152487155844
O	-1.3540536675584418	-0.7714422768831177	1.1025359371558443
O	-0.36143604855844175	-1.836099446883118	1.0191972571558443
O	0.7438779124415582	-1.3911740668831176	1.7724119071558442
O	0.0747639524415582	-1.3858615368831178	3.068350447155844
O	-1.4137857315584417	-1.3485801768831176	3.244107437155844
O	1.0571773924415582	-0.17872078688311777	1.1978769771558442
O	2.060921142441558	-0.3815255968831177	0.2792484221558443
O	3.3077139224415584	0.4105536531168823	-0.2240105458441557
O	4.3785137924415585	0.042128223116882246	0.4525122751558443
O	5.694233682441558	0.21038772311688225	0.4586191511558443
O	5.612627272441558	1.6433670759168821	0.5385312431558442
O	4.958597482441558	1.4646006663168822	1.8113953171558443
O	3.5825788224415582	0.7889053021168823	1.6936953771558443
O	3.351982112441558	-0.4834754868831177	2.358614147155844
O	2.6589303724415583	-1.296026746883118	1.3624863571558443
O	6.650907222441559	2.312163688116882	-0.0884478228441557
O	7.5487404524415584	2.4429623411168824	-1.3655794128441558
O	8.224236522441558	1.2934174191168823	-1.2420388928441557
O	8.742330502441558	3.1400338531168823	-0.8985355478441557
O	9.374314742441559	3.0976876031168823	0.3598405071558443
O	-5.261578947558442	4.071087203116882	2.932874777155844
O	-5.841309767558442	0.4042382431168823	5.257301307155845
O	-7.2773215975584415	4.268364593116882	2.6292071071558443
O	-6.311294187558442	4.044314913116882	0.7751638391558442
O	11.004494442441558	-11.567630406883119	-2.3963201628441557
O	14.666217442441559	-5.904017546883118	-0.0648350988441557
O	12.667290542441558	-4.7778701068831175	3.048800127155844
O	10.768201342441559	-1.6316263368831176	2.470891327155844
O	9.561589842441558	-1.287303256883118	5.982729537155845
O	9.162033592441558	-2.7936008368831176	9.373048317155845
O	3.693226602441558	-7.220043696883119	13.084710627155845
O	6.023895432441559	-8.012975306883119	10.248618427155845
O	7.098432732441558	-6.0379771868831185	7.246468407155844
O	6.576078452441558	-4.864420986883118	3.7922375371558443
O	8.934079742441558	-6.305682276883118	1.1693206671558443
O	9.556221642441558	-5.262589386883118	-2.455946612844156
O	9.380014342441559	-8.111207896883117	-4.895530882844155
O	5.863709622441558	-11.117841406883118	-9.351241882844155
O	6.488808332441558	-6.710168976883118	-12.456099872844156
O	7.828786472441559	-5.114448656883118	-9.257161182844156
O	5.335000592441558	-5.115163856883118	-6.4195506828441555
O	5.0972485824415585	-4.542992026883118	-2.721965232844156
O	4.134483602441558	-7.280486096883118	-0.3448137418441557
O	2.8272855824415584	-7.150541956883119	3.201420517155844
O	3.329287462441558	-10.287081406883118	5.288510617155844
O	-5.841769757558442	-7.387509916883118	10.855326227155844
O	-3.9191876975584417	-8.304285006883118	7.740485907155844
O	-9.157229447558441	-7.416527686883118	7.077715537155845
O	-6.994694317558442	-4.994216316883119	5.158700977155845
O	-6.971938367558442	-7.467046196883118	2.227464477155844
O	-10.697476377558441	-7.876701266883119	2.646175407155844
O	-11.270206557558442	-4.119159736883118	2.6075899471558444
O	-9.044807527558442	-3.2597983168831175	-0.35949573584415573
O	-11.136808657558442	-5.798094166883118	-2.3854945728441557
O	-14.427420557558442	-4.412607596883118	-1.1412152528441557
O	-13.414995357558443	-0.8059071968831177	-1.7747851328441557
O	-5.447779997558442	7.593121063116882	-6.144020792844155
O	-5.419727087558441	4.594253233116882	-3.7432238528441557
O	-2.7876388175584417	1.927161914116882	-4.022811062844156
O	-3.9704816075584417	-0.858192796883118	-6.307552252844156
O	-4.360839797558442	-4.404746656883118	-5.065683562844155
O	-2.9207005475584418	-7.028077576883119	-7.432159382844155
O	-3.3774922975584416	-10.215080306883118	-5.419620922844155
O	-1.0200501545584417	-9.158076106883119	0.4131156451558443
O	0.2602843924415583	-7.706272636883119	-2.910226922844156
O	-0.03371501055844173	-4.283741586883117	-4.564324902844155
O	1.5054148224415584	-1.9673938468831178	-7.0953959428441555
O	5.041882802441558	-0.8407074468831177	-6.299133462844155
O	5.453348052441558	2.9603774131168823	-5.950147662844155
O	9.100791572441558	3.4123632031168825	-6.736863092844155
O	9.534512642441559	7.0522218331168816	-5.9843726128441554
O	8.615755332441559	6.810570883116883	-2.351996292844156
O	6.528661222441558	8.846834743116883	0.2055816261558443
O	-10.101427887558442	12.630062493116881	-4.393989782844155
O	-8.799833017558441	9.408311223116883	-2.8816703128441556
O	-10.165559527558441	10.430674553116882	0.5204361891558442
O	-13.531519057558441	11.299048273116881	-1.0010189228441557
O	-13.436314857558441	7.776785453116883	-2.4422940028441555
O	-12.615853857558442	6.171751143116882	0.9076119741558444
O	-7.723725197558442	5.968622973116883	7.228821027155845
O	-6.582870117558442	6.867938123116883	10.791626927155844
O	-3.0064648075584417	7.6369744031168825	9.696581087155845
O	-3.3464707175584416	10.205832053116882	6.883263177155845
O	0.01054391344155825	11.957395593116882	6.582323897155844
O	4.633876512441558	9.576886593116882	4.995924047155845
O	1.5621345824415585	7.603660833116882	3.859034907155844
O	1.1492882824415582	9.111340843116881	0.3608525011558443
O	3.3432280324415586	7.635341843116882	-2.4403611728441557
O	4.545862542441558	9.172295183116882	-5.716066882844156
O	4.073423162441558	7.015921743116882	-8.796577392844155
O	4.810529292441558	7.540602323116882	-12.502312572844156
O	0.2864780724415583	10.300564523116881	-9.839816982844155
O	-0.07540707755844178	10.113065443116882	-6.074390152844155
O	-1.6223854925584418	7.269802973116882	-4.1474609128441555
O	-3.0229774775584417	6.820770033116883	-0.5598603558441557
O	-1.4738231525584418	4.260056173116882	1.2318400971558443
O	-0.6440432165584418	2.944294853116882	4.889444407155844
O	2.7009980124415582	1.0760168621168822	6.064464147155845
O	1.281291802441558	-0.2970202068831178	9.099254097155844
O	-1.326783777558442	-2.8655704268831177	10.129421327155844
O	-4.744272267558442	-1.4285181768831179	9.767996547155844
