32

O	38.08312731362397	34.370114112825995	10.421471640712312
O	38.2343486263578	33.7901185646184	16.265231659800808
O	37.576716601062465	35.42087210389304	16.12338676630509
O	36.66322751118683	34.36763150138682	15.359557837787118
O	37.319202313088496	34.52402285764489	14.141262352068392
O	38.755175567600645	33.823463802092014	14.417289885771586
O	38.27273795622698	32.81065850276278	15.227424817261912
O	37.22009464909698	35.991543983006906	13.885939764514774
O	38.59071544165106	36.11308866356551	14.432136457547418
O	36.587388659241	37.02226496508322	14.452391823111478
O	36.37583423268217	38.37789500254741	13.73858399399333
O	37.62414153293917	33.30086121759889	14.01089920357603
O	37.69791015472311	31.858511828432185	14.13910368995723
O	38.976512120469586	31.019669507382176	14.105318753292398
O	39.40575428195272	31.704033493690325	12.91567389274557
O	38.43038637223335	32.18580733320142	11.941991325772285
O	37.18684250328301	31.30222286691813	12.06608536561537
O	36.68568775175723	32.135231815302916	13.2071347828768
O	39.56511870369593	33.09697273221403	13.118963709360495
O	38.66604357562449	34.36714700244545	12.738070295423674
O	37.84375345402364	33.36459384632517	11.928665105674709
O	39.31158007116795	35.03563957528279	11.712172494766312
O	38.83518953468728	36.616045458751124	11.896064388574352
O	39.07763368034679	38.12544440865871	11.207272092927177
O	38.86622938671857	38.236376892733325	9.876035917727041
O	38.541600428083356	36.54826493419082	9.773247963307995
O	37.32539337888596	36.231564773748886	10.71018091763525
O	37.97314298198707	37.757502107118064	11.218690566992581
O	39.69416905154534	39.24003788505965	9.789317058454342
O	40.58561919171404	39.85188949070998	10.709862214042834
O	38.95717384550446	40.42271103794251	10.161408173840904
O	39.98277062000132	40.02009491607397	8.733029614143103
