103

O	-4.950478932125	3.387409574	-4.5316437141375
O	-4.800017192125	2.076143943	-3.9129227741375
O	-3.8903631121249997	1.5231946803469998	-3.0474405641375
O	-3.7621846921249995	0.1755979339999998	-2.8967936741375
O	-4.446327592125	-0.8593732860000003	-3.4605282341374997
O	-5.512899162125	-0.2108525560000003	-3.9495943041375003
O	-5.776032512125	1.203153118	-4.2220225841375
O	-3.139533232125	-0.643588416	-1.9377701941375
O	-1.8407981701249998	-0.48589571600000037	-2.0378221141374997
O	-1.348571992925	0.6073123309999998	-2.0289264741375
O	-1.4224240421249998	-1.7759758060000004	-1.5481839841375
O	-0.279598512125	-1.6473746360000003	-0.8877818351375
O	0.6954436878750003	-0.7250981060000004	-1.2408393861375
O	1.5695979078750002	-0.13840201600000013	-0.2897738551375
O	1.772933377875	-0.6671409260000001	0.8981301158625001
O	1.0711762378750003	-1.7743613760000003	1.0975330858625
O	0.2144539778750001	-2.2754614760000003	0.1473111168625001
O	2.3824137578749998	-0.14021133600000013	2.1488348358625
O	1.4755778878750003	0.46694125399999975	2.9520804258625004
O	2.2089842878750003	0.9842407059999998	3.8760594058625006
O	3.5065730078750006	1.0696921049999997	3.5763620458625
O	4.574729937875	1.4324534635	4.2888897558625
O	5.454968507875001	2.1658729699999997	3.6416457058625005
O	5.502199207875	1.9424466349999998	2.3562258858625
O	4.5617363678750005	1.1857424009999997	1.8240651458625001
O	3.580751067875	0.4477572839999997	2.4165404458625
O	4.374256197875001	1.3962524449999998	0.5114698558624999
O	0.16581746787500018	0.5095398139999998	2.1563846158624997
O	-0.19302984212499985	1.1461487519999998	1.0008563258625
O	-1.3613180621249998	1.1656832149999998	0.3444570388625
O	-2.437159522125	0.4385678439999998	0.6614923558625001
O	-1.964541595125	-0.5507622360000002	1.4070297358625001
O	-0.8340708631249999	-0.4010313660000002	2.2027984758625
O	-3.638996162125	0.6923761469999998	0.0948193758625
O	-4.867735792125	0.1076506639999999	-0.15920500413749994
O	-6.247444632124999	3.5828042339999997	-5.0330842341375
O	-3.5096634421249995	-1.719896726	-4.0211607141375
O	-4.2458460821249995	3.784548134	-5.635500494137499
O	-4.8580425121249995	4.416238763999999	-3.6469008041375
O	5.0928409578750005	-6.973139826000001	9.5484923958625
O	3.9981569178750007	-3.444168966	8.670697075862499
O	0.3937784378750002	-4.464709676	9.2024293158625
O	-2.320567772125	-7.148651046000001	9.6738567958625
O	-5.908506282125	-7.708807706	8.603433995862499
O	-7.110509702124999	-11.294500806	4.7987609158625
O	-3.413764792125	-11.453911506	5.4078141258625
O	-0.7924201061249999	-8.808925506000001	5.9104996758625
O	1.659146487875	-6.269525336000001	4.6392385258625
O	5.255958527875	-6.984837936	5.1339117658625
O	8.373732537875	-4.897783056	4.6260770458625
O	9.796642087875	-2.612849446	-0.5089320013374999
O	6.367202467875001	-3.328249396	0.9760143358625
O	4.577241897875	-6.621578576000001	0.06818345286250005
O	0.702996477875	-7.269594106000001	0.3280302328625
O	-0.018782532124999918	-11.063022006	0.4415860098625001
O	-10.211523142125001	-12.057723306000002	-0.8591649051374999
O	-9.819192452125	-8.545901106	-4.1751742641375
O	-6.016190962125	-8.651552506	-4.0277209041375
O	-8.197539892125	-6.4777412760000015	-8.4405386441375
O	-6.0396101421249995	-4.112442476	-6.4320966941375
O	-3.0452661121249998	-5.2413011659999995	-8.5523964041375
O	-5.108185652125	-4.999625826000001	-11.730721404137501
O	-6.2050308921249995	-1.4404535860000003	-10.901820704137501
O	-2.825062362125	-0.03308931600000009	-9.7848908041375
O	-1.525217962125	-1.098988356	-13.2408249041375
O	1.338858227875	11.121780094	-4.8832182441375
O	0.06723900787500003	7.525445553999999	-5.0133956541375
O	2.124281917875	4.564549144	-3.8296443741374997
O	4.064939417875	3.239071064	-6.8764988941375
O	3.5852508978750004	-0.3717523260000002	-7.931864284137499
O	6.914850447875	-2.165296396	-8.632279234137501
O	5.629895997875001	-5.675611936000001	-9.3085897041375
O	1.5599406578750001	-7.083297766000001	-4.5564725441375
O	4.848719507875001	-5.143729536	-4.3825494441375
O	5.382894867875001	-1.363362156	-4.0165011241375
O	7.910573397875001	1.3258364249999999	-2.9639294841375
O	8.489829697874999	1.2931696779999997	0.8458444058625001
O	7.648326237875	4.570141273999999	2.6236066858625
O	10.164411487875	4.604411444	5.4029226758625
O	8.672325637875	7.353704204	7.6318056158625
O	5.220812987875	5.700498734	8.108925665862499
O	1.665092877875	7.017293883999999	8.194873125862498
O	-3.4367421321249996	12.245711794	-5.816526224137499
O	-7.179467772124999	12.218932394	-5.2524045041375
O	-10.729181882125001	5.229738224	-2.2374433741375
O	-10.920682842125	4.953805594	3.2974382458625
O	-9.249683772125	8.384893924	2.9526053558624996
O	-3.4941489321250003	6.618642654	8.777869795862498
O	-3.679807852125	6.098468404	5.0893042858625
O	-1.1854536711249999	8.712591674	3.8793355758625
O	2.5538734578750004	7.792940873999999	4.0651054358625
O	5.500046677875	10.128973543999999	4.3465324958625
O	8.373809737875	9.599978693999999	1.8955199358625
O	11.735081887875	11.276282684	1.2336438258625
O	3.3537533978750007	12.222828794	0.6409082458625
O	1.666370227875	9.255577664	-0.9490889511375
O	-1.9347000421249998	7.943511303999999	-0.8699317331374999
O	-1.9811637631249999	4.452687753999999	0.018917126862500022
O	-4.376658992125	1.8165673229999997	1.8308313558625
O	-3.5038339121249997	-1.1933796360000004	4.2776958958625
O	-6.613023122125	-3.1537457560000006	3.7645726658625005
O	-8.061055552125	-5.1692533659999995	0.8981556858624999
O	-9.785900462125001	-2.9455321060000004	-1.6308203641374999
