111

O	-0.7838911382472229	4.090637213263889	0.07895674421527835
O	0.5546256797527771	2.501313203263889	0.44228879821527833
O	0.16153593975277714	4.533494363263889	-0.8050145377847217
O	0.8934435597527772	3.183247543263889	-0.6367435197847217
O	1.954887649752777	3.409316453263889	-1.7158819877847216
O	2.089585119752777	3.9726920232638894	-3.1438706877847213
O	1.4076612597527773	5.344554483263889	-2.9981763177847216
O	0.3366811497527771	5.375486343263889	-1.9091486577847219
O	-0.4288688852472229	3.265662043263889	1.0722107422152782
O	-0.7085619122472229	0.40193933426388917	-0.6867776937847216
O	-0.7946913572472228	1.8282389042638894	-0.9744755947847217
O	-0.9567976040472229	2.4536787632638895	-2.5036516077847217
O	0.3754353197527771	2.8216175732638895	-3.6578397977847215
O	0.030007949752777208	1.5520962752638892	-3.1359372477847214
O	-0.7027355622472229	0.5414652362638892	-2.1529231677847216
O	-1.3636730222472229	2.2039627532638892	1.2638179822152784
O	-1.1886170682472228	-0.15936705673611073	0.5335738632152783
O	-2.549892350247223	0.3690411922638892	0.7096606632152783
O	-2.780281330247223	1.5087779232638892	-0.23039407058472167
O	-1.830449479247223	2.4478400232638893	-0.18473938418472166
O	0.20148712975277716	-1.732178006736111	3.6839359722152785
O	-0.2798120502472229	-1.742268736736111	5.174695522215278
O	-0.8229629372472229	-3.2204407167361104	5.507977812215278
O	-1.843421387247223	-2.6998212367361107	4.3101464022152784
O	-1.728389203247223	-1.7477816367361108	3.1959463422152785
O	-0.6433774582472229	-0.9656438767361109	2.7174388722152782
O	1.0580442197527773	-3.8705456767361106	4.544517222215278
O	0.2664878797527772	-3.191811406736111	3.5990244422152786
O	-0.12777328524722287	-3.974591646736111	2.4612017822152783
O	0.45614506975277713	-5.375191786736111	2.7819417222152785
O	0.2028764097527771	-5.908268876736111	4.019388442215278
O	0.7277268797527772	-5.1554340567361105	5.079450272215278
O	-0.5754725552472229	-1.0282851967361109	1.3645386422152783
O	1.6005065997527772	-5.897592176736111	5.864388222215278
O	1.1520471297527772	-6.379290346736111	7.116720342215278
O	3.2960604797527777	3.939835283263889	-3.8927694877847214
O	4.125920399752777	4.932617793263889	-3.6612650277847214
O	3.8369874697527777	3.0443526232638893	-4.683760017784722
O	2.863954449752777	4.47881408326389	-5.121305267784722
O	-6.299338530247223	-3.1658860367361106	11.962114662215278
O	-2.8512246102472227	-2.741960006736111	10.351864362215277
O	-3.0439292202472226	0.9544844422638892	10.673742962215279
O	-5.098567290247223	4.045262983263889	11.369341462215278
O	-9.387597080247224	9.178160873263888	6.972043402215278
O	-9.957669300247222	5.598738243263889	7.955054872215278
O	-7.600437920247223	2.643604213263889	8.077804962215279
O	-5.697652230247223	-0.1434549467361108	6.519514392215278
O	-7.093584950247223	-3.539428756736111	7.607965942215278
O	-5.725716050247223	-7.0633153067361105	7.114308122215278
O	-8.320296700247223	-9.45575326673611	5.652222192215278
O	-10.361666900247222	-12.527274366736112	0.3452510162152784
O	-4.714971410247223	-9.224494766736111	1.8421327022152783
O	-4.543208280247223	-5.662149116736111	3.0382948722152783
O	-7.344073200247222	-3.257050546736111	2.5471706522152786
O	-7.582175930247223	0.4805467562638892	2.5852400522152785
O	-11.091748890247223	1.9021497002638892	3.3089752922152784
O	-10.766463640247222	12.01184693326389	1.1699077522152783
O	-8.014595590247223	10.80000542326389	-2.7065629177847215
O	-8.745209580247224	7.113268053263889	-2.1994293777847216
O	-7.014277520247223	8.54698203326389	-7.103093197784722
O	-4.634900860247223	6.15196232326389	-5.330575447784722
O	-6.686924430247223	3.227464003263889	-6.850768577784722
O	-6.616934210247223	5.001376233263889	-10.181756437784722
O	-2.834394170247223	5.520169273263889	-10.014915867784723
O	-1.8351629522472228	2.031270779263889	-8.856165927784723
O	-3.784941500247223	0.6776148832638892	-11.954651537784722
O	-2.1516659602472226	3.2037084532638893	-14.241752237784722
O	1.2912726597527773	2.5609432032638892	-12.817844837784723
O	9.138313809752777	-3.7157145667361107	-5.669562487784722
O	5.841163859752777	-1.801990196736111	-5.310314037784722
O	2.9484580897527772	-3.4418119467361112	-3.4312420477847216
O	0.6741710697527772	-5.242406886736111	-5.906094417784722
O	-2.940628750247223	-4.236010066736111	-6.424346457784722
O	-5.379453340247222	-7.224997116736112	-6.452342017784722
O	-8.740098330247223	-5.445581606736111	-6.647568957784722
O	-8.692880680247223	-0.8153773467361107	-2.2286834577847214
O	-7.109645630247223	-4.322467576736111	-1.9922170277847218
O	-3.441508090247223	-5.4333626767361105	-2.2077395577847216
O	-1.028029072447223	-8.221378416736112	-1.3960167077847219
O	-0.4862518752472229	-8.67826510673611	2.3618355722152784
O	3.1128421697527777	-8.146925306736112	3.5588798822152783
O	3.249905189752777	-10.53103666673611	6.506719392215278
O	6.528327089752778	-9.377067566736113	8.089899002215278
O	5.598882199752778	-5.718647196736111	8.494808032215278
O	7.471225509752777	-2.4573317267361108	7.985477062215278
O	10.647369209752778	0.7380421712638892	-7.321515277784722
O	11.222107009752778	4.466805353263889	-7.121876357784722
O	12.704358109752777	4.521461983263889	-10.586305637784722
O	9.517061309752778	2.8095712132638893	-11.612285437784722
O	7.223984889752778	5.283315043263889	-9.728463387784721
O	5.446846249752777	9.04044925326389	-3.4522042677847216
O	5.9820432697527774	12.038771333263888	-1.0679146177847216
O	6.641463949752778	9.914545813263889	2.0387112022152785
O	9.598597909752778	7.637270923263889	1.2871512922152784
O	10.880084509752777	6.2428372732638895	4.670232662215278
O	8.085774289752777	2.7245003232638894	7.986513272215278
O	6.811322849752777	2.6943460432638893	4.469915362215278
O	8.771222219752778	-0.2511410167361108	3.1163761722152783
O	7.346525489752777	-3.709627086736111	3.866440882215278
O	9.251088809752778	-6.99484452673611	4.055035692215278
O	7.726588759752778	-9.86790986673611	2.0703026822152784
O	8.754992419752778	-13.52924626673611	1.4964234022152785
O	10.907027409752777	-5.51583748673611	-0.20846326628472164
O	8.012068199752777	-3.4660511267361107	-1.4251088277847215
O	7.3625303597527765	0.31173267126388915	-1.5638438777847217
O	4.311859489752777	1.0602711272638892	0.13168482721527835
O	2.5100590197527772	4.054991683263889	2.2530337122152786
O	-0.12093299324722284	3.696797473263889	5.183758352215278
O	-1.7078560002472227	7.182494693263889	4.533961812215278
O	-4.048590850247223	8.96372831326389	1.9712317622152784
O	-2.074332860247223	9.894304973263889	-1.2097172077847218
