106

O	7.94744158845946	2.3214130669650004	4.0287637288513505
O	4.50933509845946	0.8919212329650006	2.519384498851351
O	4.99252054845946	0.3673122089650006	1.3743097588513509
O	6.10251900845946	1.0905253919650006	0.9396033018513509
O	7.06761546845946	1.5238407639650005	1.7934889088513508
O	6.53844078845946	1.9076081069650006	3.045275958851351
O	5.47787617845946	1.0927836879650006	3.4578714988513513
O	5.03668595845946	1.9698428269650006	4.538982158851351
O	4.55056695845946	-0.5383659730349994	0.4388650348513509
O	3.2236866484594597	-0.5290953830349994	0.3535379738513509
O	2.9828437884594594	-0.17842093203499942	-0.9848711011486491
O	2.4481822584594597	-1.1823867530349994	1.000915137851351
O	1.6222700284594596	-0.6147788730349995	-1.280398011148649
O	0.7903116684594597	-0.0820956620349994	-0.30318371214864914
O	-0.19288399554054025	-0.8845197630349995	0.17147451175135092
O	-0.4937914995405403	-1.9149715530349993	-0.5916620871486491
O	0.6239507184594598	-2.6761182930349996	-0.6450681481486491
O	1.6562665984594598	-1.9811366530349994	-1.280811881148649
O	-1.7556348575405403	-2.368949543035	-1.143161591148649
O	-3.0635405615405404	-2.0658699230349997	-1.079956401148649
O	-3.5734965715405402	-0.8184254930349995	-1.158770291148649
O	-4.88075009154054	-0.6063452130349993	-0.8833081511486491
O	-5.79803853154054	-1.5580984530349993	-0.6113364351486491
O	-5.42248097154054	-2.7818432630349994	-0.8456478111486492
O	-4.05418729154054	-3.010768053034999	-0.950909101148649
O	-6.2394382215405395	-3.986486913034999	-0.5386767471486491
O	-7.64335525154054	-4.002178283034999	-0.4736807601486491
O	-8.235416971540541	-5.336779653034999	-0.4526128161486491
O	-5.27504226154054	-4.815258773035	-0.2785815871486491
O	5.90840292845946	1.7471281769650007	5.517638428851351
O	3.8247058284594595	1.7725931569650006	4.77582846885135
O	5.13783489845946	3.3034928969650004	4.50372803885135
O	-7.59963296154054	-4.335586293034999	-13.97252693114865
O	-6.91418836154054	-10.159279133035	-7.2877148711486495
O	-6.39985923154054	-8.699738573034999	-3.832847151148649
O	-3.4100217815405403	-10.869394033034999	-3.2192109311486488
O	3.3689191584594593	-11.374862833035	-8.850251941148649
O	0.23407952845945978	-9.904636533035	-7.337495811148649
O	-1.7986973435405402	-6.989395363034999	-6.088285551148649
O	-4.92369182154054	-6.2895838430349995	-8.09998809114865
O	-7.7998071615405395	-3.917348103034999	-7.467536591148649
O	-8.56635857154054	-1.6559368730349993	-10.43319373114865
O	-7.98058948154054	4.297899156965	-12.877064931148649
O	-5.25002470154054	9.432646176965001	-11.90087613114865
O	-10.68115458154054	2.535184936965001	-7.521713191148649
O	-7.0610027215405395	1.7769981369650005	-6.758261711148649
O	-4.72864222154054	-1.0872403230349994	-5.84089164114865
O	-2.01689549154054	-2.065113733034999	-8.36242520114865
O	1.1751599084594595	-4.034591783034999	-7.645379061148649
O	2.7864673684594594	-5.632007213034999	-10.711059931148649
O	12.62379124845946	-4.4872752530349995	-5.494051681148649
O	9.37487774845946	-3.1723400430349997	-6.9441645011486495
O	12.74597734845946	0.47607595596500063	-4.8838703811486495
O	9.28314714845946	0.3948612649650006	-2.968390701148649
O	8.15002163845946	2.9114200569650004	-5.68264271114865
O	11.30761244845946	4.944096656965001	-5.23860049114865
O	10.90209314845946	4.916925896965001	-1.4149691711486492
O	7.17546427845946	5.718536786965001	-1.2256490811486491
O	7.99444110845946	8.847552206965	-3.324832291148649
O	10.95822534845946	9.758599746965	-1.1759017111486492
O	8.98324226845946	9.329123556965001	1.9939199488513508
O	-1.4263367125405404	6.732520356965001	8.02706127885135
O	0.6964882684594597	5.134593566965001	5.197724868851351
O	-0.8723259325405402	4.023918196965001	2.021413918851351
O	-0.8108685635405403	6.902240566965001	-0.46552713314864913
O	0.9821156584594598	6.457821156965001	-3.7295026811486487
O	-1.0155284385405403	7.782864506965001	-6.730265301148649
O	1.2342230384594597	6.763915386965	-9.59794192114865
O	2.8212674284594597	0.6612928055650006	-8.67633071114865
O	-0.5399947175405403	2.3609936669650007	-7.94419165114865
O	-1.9980763915405402	3.3894081869650003	-4.56751554114865
O	-5.21389875154054	4.307155756965001	-2.8386153411486488
O	-7.70516723154054	1.4871751009650005	-2.537771681148649
O	-8.74603430154054	0.6337210489550006	1.0969086028513508
O	-12.20218615154054	-0.7874948930349994	0.6849290468513509
O	-12.53875575154054	-2.467608183034999	4.130640188851351
O	-9.46784180154054	-4.7430499330349996	3.989803308851351
O	-6.79480433154054	-5.762038743034999	6.508778948851351
O	2.1457911184594596	7.755735676965001	14.066954268851351
O	2.7926852484594598	6.080308056965001	10.598719268851351
O	5.71118179845946	4.189031036965001	12.03389796885135
O	7.0901697084594595	7.345226146965	13.67775976885135
O	6.83020397845946	8.793609286965001	10.162716028851351
O	8.61396549845946	5.845206706965	8.57450333885135
O	8.92269436845946	-1.6537340430349994	7.472604468851351
O	10.21759424845946	-5.2206108830349995	8.44925766885135
O	6.72438999845946	-6.787826493034999	8.33516531885135
O	4.58899929845946	-4.787296593034999	10.73861166885135
O	1.5058769284594598	-6.912004263035	11.623572568851351
O	-2.5002629315405405	-8.274393773035	8.13746541885135
O	-0.47999483854054026	-5.311200183034999	6.813019198851351
O	-2.7155623615405404	-2.577793983034999	8.20693231885135
O	-5.76762420154054	-1.6074344930349993	6.122911358851351
O	-8.99350825154054	0.020976947965000603	7.25358160885135
O	-10.15975489154054	3.0855330769650005	5.305137888851351
O	-13.08154035154054	5.543055676965001	5.51285305885135
O	-8.57724977154054	5.767950496965001	9.29858967885135
O	-5.94608759154054	3.0513235169650006	9.27145024885135
O	-3.0460457915405406	2.8289939569650002	6.8860010988513505
O	0.32169118845945965	0.9905603589650006	6.95524151885135
O	0.9296228984594598	-0.9391384330349994	3.952150638851351
O	2.7934306784594596	-3.8316044430349994	2.605848968851351
O	1.2573337984594595	-6.907160753034999	0.3905734988513509
O	4.70919628845946	-8.187716373034998	-0.3748645561486491
O	7.875625708459459	-7.096247243034999	-2.154882371148649
O	9.90194964845946	-4.746368153034999	0.0805060588513509
