93

O	-4.155912851619999	3.313846903430771	2.3645586896615383
O	-3.35615589162	3.619532333430771	1.3005710696615382
O	-2.1109073516199994	3.659478393430771	2.008719849661538
O	-1.4820411876199997	3.0156107834307706	3.224580159661538
O	-2.4808518616199997	3.3616121734307707	4.152282759661539
O	-3.6716560916199996	2.947973163430771	3.7214296096615382
O	-0.20132987361999954	0.11582180343077098	1.7592842696615383
O	-1.0748257436199995	1.089365572430771	1.7916157296615383
O	-2.2909880916199996	0.8889031114307708	0.9131335376615384
O	-1.8463496946199995	1.1744121064307709	-0.3017106543384617
O	-0.5609967706199996	0.7548684544307709	-0.6251018203384617
O	0.16656571838000034	-0.0133227565692291	0.3790148076615383
O	-2.2719012916199994	1.9451403094307709	-1.4823221503384618
O	-1.4597074196199995	1.5443451504307708	-2.370428110338462
O	-0.3614424776199996	1.001315657430771	-1.8417917803384618
O	-3.3307536916199996	2.906078143430771	-1.2154274303384618
O	-3.6685348716199995	3.389946823430771	-0.09317384333846172
O	1.4568527383800003	-1.825029716569229	3.259929929661538
O	1.6585190483800005	-2.8344416165692294	2.398260099661538
O	3.0206389883800004	-3.3484532265692293	2.475672969661538
O	3.8635944983800004	-3.281764986569229	3.612691389661538
O	3.6017417483800003	-2.1001342265692293	4.348512999661539
O	2.29502916838	-1.8118454065692293	4.440505929661539
O	0.04414194338000044	-0.917462026569229	3.119749649661538
O	2.0988958683800005	-0.49642763656922906	5.082941409661538
O	2.5249865483800003	0.3936763284307708	4.227154319661539
O	0.6973995683800004	0.0739564434307709	5.073937519661539
O	-0.19266984961999956	1.1642591794307708	5.343549809661539
O	-9.93961323162	-8.555610866569229	-4.292924410338461
O	-11.62793114162	-5.146567936569229	-4.281763560338462
O	-12.690680141619998	-2.366610306569229	-1.9493674703384616
O	-11.141639141619999	-2.083827126569229	1.5522646996615381
O	-8.403949851619998	0.47394379443077084	1.7506452196615383
O	-8.302300811619999	-0.07540721656922922	5.551144139661539
O	-9.04244973162	-2.115602016569229	8.682957189661538
O	-5.26281664162	-7.823497346569229	12.658541789661538
O	-7.071931891619999	-7.83094535656923	9.337038519661538
O	-7.16364971162	-5.444964216569229	6.4619056596615385
O	-5.65712119162	-3.974368556569229	3.3765460496615383
O	-7.59299714162	-4.372182166569229	0.19749425566153828
O	-7.27721670162	-2.8495895765692287	-3.3005095703384617
O	-7.135116871619999	-5.438785216569229	-5.970060540338461
O	-6.4166448116199994	-6.440833006569229	-9.492416390338462
O	-3.4150220816199996	-8.71179514656923	-9.992649210338461
O	-2.4935454716199996	-4.0467180665692295	-12.593783510338461
O	-4.15799606162	-2.5043146365692293	-9.529907060338463
O	-2.3541949916199996	-3.297199716569229	-6.288703230338461
O	-2.7987128516199995	-3.174137716569229	-2.617694430338462
O	-2.9035115116199997	-6.315714826569229	-0.5251079803384617
O	-2.3763074116199996	-6.838847866569229	3.169807639661538
O	-3.81140311162	-10.00748534656923	4.664276619661539
O	2.98680244838	-9.524341546569229	8.685968499661538
O	7.05127745838	-6.864303586569229	7.166594769661539
O	7.188679378380001	-8.86402374656923	4.015144239661538
O	10.43960925838	-5.0153720465692295	2.433963579661538
O	12.449766158380001	-7.717748206569229	0.6064429936615383
O	10.25448005838	6.722370243430771	-2.626778010338462
O	9.20351445838	3.615263443430771	-0.7316357643384617
O	6.18594380838	1.528950165430771	-1.6058838403384619
O	7.33874308838	-1.1921981065692293	-3.9626503703384617
O	6.77026917838	-4.824741366569229	-3.180965410338462
O	5.40920673838	-6.861360276569228	-6.052013970338462
O	4.82078579838	-10.21205574656923	-4.386939560338462
O	1.6221960183800004	-9.042186146569229	1.0108129276615383
O	1.2876396783800002	-7.279428536569228	-2.344559520338462
O	2.56652421838	-3.836631656569229	-3.311244230338462
O	2.07722544838	-1.0629111565692293	-5.851864620338461
O	-1.2663423226199995	0.7226433434307709	-5.714510630338461
O	-1.0317058436199995	4.481316253430771	-4.9796590003384615
O	-4.25744327162	5.827251073430771	-6.352049750338462
O	-4.270985801619999	9.343708543430772	-4.930560710338462
O	-4.205104071619999	8.31352665343077	-1.2614924203384619
O	-2.3332184616199996	9.542378933430772	1.8417288496615383
O	10.40896375838	11.713289753430772	1.802313259661538
O	13.316330158380001	7.5392689734307705	1.2020495996615381
O	3.70975707838	11.239986863430772	9.522862769661538
O	1.6057193083800003	12.59768725343077	6.604820979661539
O	-0.9783455933199996	9.816100983430772	6.9804057296615385
O	1.9817179083800003	7.466991323430771	6.186962279661539
O	3.0065904483800003	9.009146923430771	2.865419949661538
O	1.0593654283800005	8.146024263430771	-0.37085829233846174
O	0.7783017183800004	10.258030913430773	-3.502932850338462
O	1.5243903183800005	8.448656413430772	-6.7552661503384615
O	1.6234928483800002	9.48215047343077	-10.415686010338462
O	5.912005268380001	10.978426253430772	-6.702454840338461
O	5.494670478380001	10.29353867343077	-3.0024999803384618
O	6.08281115838	6.989141483430771	-1.3200172303384619
O	6.76797277838	6.1154241234307705	2.2674281096615383
O	4.4415956883800005	3.5167462134307708	3.4995880296615383
O	2.6642432883800002	2.1125579644307706	6.832804659661539
O	-1.2047039576199996	0.7516216564307708	7.441546139661539
O	-0.6529690656199996	-1.1198116265692293	10.409934089661538
O	1.2069800683800005	-4.214024966569229	11.417997289661537
