28

O	39.03550016504482	40.37616687938491	9.947540890823191
O	40.44882964288521	40.680191056348114	10.33025633978145
O	38.97865416544921	40.74767364436203	8.549967524462495
O	35.3446492237448	32.09508807521571	12.946901543726241
O	36.10569994556569	31.04228463793734	13.33434735554022
O	37.07351565965524	31.562919774762953	14.168171639797734
O	37.650037287487734	32.728843398782054	13.726401320111915
O	36.90656793139805	33.75660743475819	13.213766176684697
O	35.53574723257066	33.47345658116004	13.160279951697115
O	37.49413905110516	34.963105633561355	12.633497777650424
O	38.706135369170944	35.13135345107141	12.415041178833935
O	36.731881257736305	36.15452035867136	12.869431407430703
O	37.024457934528826	37.25813688624529	12.10059911816251
O	38.88633794289621	32.48078903691065	12.99704769040081
O	39.66354732385277	31.49913444400085	13.6381803018513
O	39.39887500068296	30.183778687989253	12.96161671572236
O	39.443851301746676	30.036802485088067	11.575575338250772
O	40.076474748941195	28.959370247886987	10.95561928064815
O	40.17974094702939	27.844814896027184	11.654968554032092
O	39.99169129521988	27.935387294467848	12.939316645997684
O	40.205347283642055	29.204173487616536	13.465902664718417
O	38.025929285506244	38.08752743052529	12.453607441424895
O	37.52023037105019	38.20260778621812	9.990260512311
O	37.12896273237524	37.03898362577653	10.773929075241977
O	38.37466517870447	39.19498592571093	10.465565127531235
O	37.94994777887448	39.383896403650645	11.803038670738971
O	38.50983294382026	40.68773473228538	12.027523321012154
O	38.351624106281186	41.47801243087842	10.782147499343411
