88

O	1.727860094149123	0.3788484771929823	5.492794617315789
O	2.378591214149123	4.458105993192983	1.065658598315789
O	1.9916090241491227	1.6499406771929823	5.095211107315789
O	2.4747694341491226	2.6186994331929823	4.412772967315789
O	2.376301954149123	2.9539627331929825	-0.6981627986842112
O	0.19269584014912278	2.2085329331929824	4.799461767315789
O	2.672618144149123	2.9226434731929825	2.991117127315789
O	1.1267125941491227	2.4731410731929824	1.094991681315789
O	1.375250314149123	3.8216045931929825	6.015255457315789
O	2.119777624149123	4.190786113192982	2.444916277315789
O	0.9444331941491227	0.6995276011929823	2.317275817315789
O	2.263099054149123	3.150509183192982	0.6359713473157889
O	-0.0968840488508772	-3.362345106807018	1.0309704053157889
O	1.9040267241491229	1.5975351701929823	-1.038457262684211
O	-0.19407960485087727	-2.3163378368070173	0.011844376315788885
O	1.3595140141491227	0.5745593531929823	-0.1678246586842111
O	1.540546124149123	1.1197209292929824	1.195669082315789
O	1.301870514149123	-0.4025457668070176	3.076689927315789
O	-0.42443626085087727	0.6608443021929824	1.9896206773157887
O	-0.8828799348508772	-0.08274747680701755	3.085318737315789
O	-0.5369894928508773	-1.5797082768070176	3.237172777315789
O	-1.2374083018508772	-2.1927555168070176	2.172662267315789
O	-1.547309463850877	-3.3526088268070176	1.4216653873157887
O	-1.4499699268508772	-4.773834346807018	1.2384179293157889
O	-0.1392161008508772	-1.5264934568070176	1.241045440315789
O	-0.6242997538508772	-0.19381156680701772	0.7760353113157888
O	0.8329577041491228	3.697033463192982	2.825328817315789
O	0.4290946641491228	3.267078493192982	4.130663987315788
O	-0.47330841785087724	1.2293201315929823	5.374162807315789
O	1.675403454149123	3.9340133431929827	4.726592867315789
O	1.2411273841491228	2.6984656931929827	6.732388797315789
O	-10.217609005850878	7.084765713192983	-3.971320652684211
O	-8.231189735850878	9.265459243192982	-1.6089562026842112
O	-6.994337745850878	9.422554713192982	1.962839517315789
O	-7.023535145850878	6.295264093192983	4.150086697315789
O	-3.5120246058508773	4.912778563192982	4.359896227315789
O	-4.840805835850878	2.306259973192982	6.938973387315789
O	-7.432580605850878	0.3166917861929823	8.715157787315789
O	-7.9575523358508775	-3.208199116807017	9.938973897315789
O	-11.360225985850878	-6.445965916807017	7.338349377315789
O	-11.460743885850878	-3.084269176807018	5.634034477315789
O	-8.794660205850878	-0.6316749068070175	4.657933607315789
O	-6.209155825850877	0.6290887561929823	2.365692587315789
O	-6.628723605850878	3.774743093192982	0.5339296453157889
O	-4.326095045850877	5.945365783192982	-1.5390281926842113
O	-5.761403035850877	6.803822433192982	-4.879943462684211
O	-5.398325045850878	8.077882203192981	-8.403473462684211
O	-5.711799805850878	5.558492903192983	-11.219831262684211
O	-0.6888495203508772	7.591000753192983	-11.336051662684211
O	-0.9943610548508772	7.4266689731929825	-7.541910862684211
O	-1.6163967088508773	3.9308207331929825	-6.243391832684211
O	-2.597105165850877	2.1724046551929823	-3.111221772684211
O	-5.972877725850878	0.18750960519298232	-3.102643922684211
O	-6.966750585850877	-2.614527436807018	-0.6678299816842111
O	-8.015629855850877	-10.775041356807018	-0.1808364866842111
O	-4.196857045850877	-10.991956756807019	-5.222339402684211
O	8.554186354149122	-6.305464366807017	-3.554704932684211
O	5.519332434149122	-4.0690857368070175	-3.993404722684211
O	4.338442844149123	-4.267022496807018	-7.571689342684211
O	0.8086148441491227	-5.259793866807017	-8.426439062684212
O	-4.328430625850878	-4.423478926807017	-11.23235146268421
O	-6.3795927658508775	-4.9291990368070175	-5.183448272684211
O	-4.1739902158508775	-2.2068715968070176	-6.732092572684211
O	-0.39360757785087724	-1.6874095068070176	-6.374404132684211
O	2.348524114149123	0.9515104101929823	-6.654350462684211
O	2.115844214149123	3.8358013331929826	-4.148411912684211
O	5.230096254149123	4.211107483192983	-1.9710844026842111
O	5.084403974149122	7.859836473192982	-1.0913422626842113
O	7.408224044149122	7.832440963192982	1.870238587315789
O	5.9112040041491225	5.434698403192983	4.024719507315789
O	7.102284804149122	2.5686390531929826	6.256876647315789
O	15.067775914149122	-6.516325486807017	1.940715037315789
O	9.154738814149123	-6.168176596807017	10.26797533731579
O	10.172719514149122	-2.5330777168070178	9.62229613731579
O	6.525048284149123	-1.4402579168070175	9.63149985731579
O	6.131046874149122	-3.7593544368070173	6.609990727315789
O	8.902584724149122	-2.2679556368070175	4.462761177315789
O	8.087870594149122	0.8811688741929824	2.405082077315789
O	10.459965214149122	3.512484663192982	1.1885392053157888
O	10.198629414149122	4.396735793192982	-2.490512192684211
O	12.787205014149123	-0.3168242768070175	-0.4446150286842111
O	9.920939014149122	-2.6803370268070177	-1.017125152684211
O	8.544952414149122	-5.549283806807018	1.0447127133157887
O	4.812278424149122	-5.192314956807017	1.6895018873157888
O	1.9237973941491227	-5.930931106807018	4.248438837315788
O	-0.9219283638508773	-3.749421566807017	5.981590677315789
O	-3.047669355850877	-6.6535245368070175	6.767139207315789
O	-4.955895465850878	-9.528252156807019	5.306810247315789
