97

O	-1.0802854392877195	-0.3019326689298244	-0.6660407091157897
O	-0.10004229628771943	0.7419299770701757	-0.26839553511578973
O	-1.1123039722877195	-1.2340266019298243	0.18539529988421027
O	-1.0883038792877193	-0.022490695429824376	-2.10186892611579
O	0.8859451337122806	0.6666907920701757	-1.1905110641157897
O	0.3566361937122806	1.3743624580701757	0.9068581938842104
O	-0.7600283272877194	-1.3527585219298244	1.6772719638842102
O	-1.1297513522877194	-2.396120291929824	-0.7396912721157898
O	0.05386802371228061	0.8713165910701757	-2.34211352611579
O	-2.0985095072877193	-0.2821981799298244	-2.6865511561157898
O	1.4917072837122805	-0.5610189389298244	-0.4802097361157897
O	1.7388958937122807	1.1987223780701757	1.2497377938842105
O	-0.9368258482877194	-2.489373981929824	2.41233467388421
O	-0.3302028162877193	-0.6918369929298244	2.69247921388421
O	-2.351612566287719	-2.6959565319298244	-1.4196329161157897
O	2.142812513712281	0.057449903070175626	0.6194375628842104
O	-0.5125625362877193	-2.911744781929824	3.68757644388421
O	0.4620689237122806	-0.8544321269298243	3.83286995388421
O	-3.4973752762877197	-2.3130727819298245	-0.8227771491157897
O	-2.919585756287719	-3.9424788719298243	-1.7006615961157896
O	2.6299035237122803	-1.0651172449298243	1.3842330338842104
O	0.2960421337122805	-2.105413601929824	4.336355953884211
O	-4.188004156287719	-2.9478692619298243	0.2603814018842103
O	-3.6037035562877193	-4.680001041929824	-0.6747537941157897
O	2.0574799537122805	-2.2119461419298245	1.7099739638842102
O	3.0753149337122805	-0.3106264959298244	2.32358313388421
O	-3.5780025362877197	-4.146450461929824	0.5171257908842104
O	2.7997562037122803	-2.738085801929824	2.89344166388421
O	-2.7612250062877193	-4.478855371929824	1.6802110838842104
O	-3.3636562862877195	-5.453643221929824	2.40577850388421
O	-1.2346237392877195	-4.053362141929824	1.5479273638842104
O	-4.826937366287719	-5.724925951929825	2.21597268388421
O	-3.0733759062877195	-5.5779510519298245	3.60880433388421
O	-5.19936915628772	-6.4026040019298245	1.0046065438842104
O	-6.503055466287719	-5.936725091929825	0.4967914018842103
O	-5.557479636287719	-7.753781501929824	1.4868783238842103
O	-7.4773860562877195	-7.038627151929824	0.21336580988421033
O	-6.77241522628772	-7.660505981929824	2.3348990138842103
O	-7.844639796287719	-7.832059691929825	1.3475392538842104
O	-7.900649126287719	-9.247888841929825	1.1034091938842103
O	-10.893858816287718	5.4257076180701755	2.19189537388421
O	-10.433883556287718	2.0339823780701756	3.8201319438842103
O	-7.442413526287719	1.2386659680701757	5.969782103884211
O	-4.99288662628772	-0.6901147219298244	4.06921060388421
O	-3.021564476287719	-1.0933078319298244	7.324532563884211
O	-1.8964363102877195	-0.24009901892982438	10.73880141388421
O	1.2132896537122806	0.14117813507017563	12.78034621388421
O	2.89780443371228	5.095147808070176	14.17447081388421
O	-0.3209069862877194	5.462362778070176	12.25796871388421
O	-1.6437847902877194	3.8387597980701758	9.16213979388421
O	-1.9176136342877195	3.714798718070176	5.51375673388421
O	-5.206996686287719	4.378394958070175	3.77698302388421
O	-6.46377676628772	3.7764269380701756	0.27683758788421026
O	-7.90155077628772	6.837429868070176	-1.2593441751157897
O	-9.163242176287719	8.634169228070176	-4.24786833611579
O	-7.05515104628772	8.005068608070175	-9.34729472611579
O	-6.87800113628772	5.489386788070176	-6.49853346611579
O	-3.815910056287719	5.948354898070176	-4.376271076115789
O	-2.3483698182877193	4.787856748070175	-1.0971868941157896
O	-1.6505219948877194	7.446939178070176	1.6824421538842105
O	0.6655059937122807	7.163185028070176	4.735017483884211
O	9.260926833712281	11.148114568070175	1.6444786238842102
O	9.61448393371228	0.5427922770701756	-6.6928397961157895
O	6.307787873712281	2.017426118070176	-5.471294886115789
O	5.92072835371228	5.344259218070175	-7.195339146115789
O	5.5542119237122805	8.542165978070175	-5.279695086115789
O	1.0263103237122804	9.509883868070176	-1.4309319661157895
O	1.9026487637122804	6.705049328070175	-3.82303833611579
O	0.41914552371228075	4.591812858070176	-6.621198466115789
O	-2.2335889132877194	2.1473734380701757	-5.480161186115789
O	-1.3302590482877195	-1.4940729919298243	-6.24603019611579
O	-4.776265856287719	-3.1454008719298243	-6.403263506115789
O	-3.7637447762877194	-6.8181991019298245	-6.242537866115789
O	-1.8763878562877194	-6.603542031929824	-2.94792613611579
O	1.2746150937122807	-8.294328341929825	-1.6329606761157895
O	2.7942360337122807	-10.962176131929825	-3.55274084611579
O	-0.9942741122877194	-13.384784331929824	-0.4223446265157897
O	12.535282333712281	-7.444967081929824	-7.467593526115789
O	10.099416133712282	-10.077190461929824	2.16031793388421
O	7.118314883712281	-11.209858731929824	0.04258786388421032
O	4.70671834371228	-9.217124841929824	2.2500458938842103
O	6.657851183712281	-6.148593941929824	1.1284201138842103
O	6.28122534371228	-6.706838471929824	-2.65966551611579
O	3.03371954371228	-5.597767911929824	-4.4594575361157895
O	1.4518112037122808	-6.8583199719298245	-7.586388716115789
O	0.4104723037122804	-4.210786811929824	-10.05785574611579
O	5.84401626371228	-6.002977731929825	-9.18647610611579
O	6.8933791737122805	-3.176206471929824	-6.905270376115789
O	9.08596153371228	-3.0079245919298243	-3.7758226261157897
O	7.180296983712281	-1.3141971619298243	-0.9100750741157897
O	7.0937802237122805	-0.9875776319298243	2.86899057388421
O	4.2207111937122805	-0.6346608729298243	5.36882618388421
O	6.088233643712281	0.4425361310701756	8.15037897388421
O	8.033106313712281	3.5520501280701757	9.10235226388421
O	-15.707316666287719	-0.33560849292982436	4.547636613884211
O	-14.203790666287718	-3.3811311819298244	6.258263103884211
O	-17.65349426628772	-4.923521611929824	7.2807919538842105
