95

O	2.670427968833334	4.346275679439394	3.2183892663378786
O	1.6940349888333341	3.7152490194393937	3.8219906863378785
O	-1.1393384381666658	-2.0644444305606062	1.3932442363378787
O	0.9805325288333341	2.7380336894393937	3.1812085063378785
O	2.4096037088333344	4.651427619439394	1.9670721363378787
O	0.951535948833334	2.7416699594393936	1.7766229563378786
O	3.372562278833334	5.219075039439393	4.006386956337879
O	1.5861606588333341	3.826336059439394	1.2681572563378787
O	-1.5320281571666658	-2.0641473905606063	-0.7893684916621213
O	-0.20588063616666585	2.146196169439394	3.6543622363378785
O	-0.4214488301666659	0.9616773464393937	3.022413606337879
O	-0.5363913381666658	0.7621395131393937	1.6854916963378788
O	0.3401525688333341	1.6486479224393937	1.1201894963378787
O	-1.371330094166666	0.030087201439393696	0.8061697003378787
O	-0.9155097816666659	-1.3573991205606064	0.3378228553378787
O	-2.999031351166666	-1.952181020560606	-0.7197990006621213
O	-3.4079387011666658	-0.8760144105606064	0.3149306643378787
O	-2.720590711166666	0.010687906439393657	1.0711126563378788
O	-3.601291621166666	0.13903731743939374	2.291896696337879
O	-1.0947152701666658	-3.3480432205606063	-1.3132894236621213
O	-0.28537030116666584	-3.6150805005606066	-2.4490308936621212
O	0.176808048833334	-4.711369440560607	-3.0500937236621213
O	-0.7359053611666659	-5.719133410560606	-2.9895541136621215
O	-1.755961172166666	-5.6231589205606065	-2.017993863662121
O	-1.8898753691666659	-4.5117513705606065	-1.1711977236621214
O	1.3431358888333342	-4.977716750560607	-3.8693746536621214
O	1.464354838833334	-4.4968277005606065	-5.133261413662121
O	2.556025938833334	-4.625520260560607	-3.400518593662121
O	1.634997568833334	-6.298887650560607	-3.9616338536621214
O	-4.081548971166666	6.937570009439393	11.333968056337879
O	-1.087245498166666	5.148758369439394	9.836135206337879
O	-2.520991521166666	1.8170919194393935	10.90797895633788
O	-10.747588031166666	-0.7666463705606062	9.250800086337879
O	-7.6225533211666665	1.3236042564393937	8.831068986337879
O	-4.997746611166666	3.013519699439394	6.6800954263378785
O	-5.080898181166666	6.794485049439394	7.045362496337878
O	-2.7357870611666657	9.526938399439395	5.8144903463378785
O	-5.377450591166666	13.338617709439394	-7.805266623662121
O	-1.4605022581666658	10.123762169439395	0.1672001193378787
O	-2.3234522511666658	7.028271469439393	2.158878786337879
O	-5.887435711166666	5.683545019439394	2.1267894663378786
O	-7.317359791166666	2.3196946294393936	3.0001235763378786
O	-11.004515851166666	2.2194710394393935	3.9733286063378785
O	-13.976474651166667	-7.743676490560607	3.8577683363378785
O	-11.256776151166667	-8.231570850560606	-0.18421406296212134
O	-10.691888181166666	-4.465437250560607	-0.38401493466212133
O	-9.856040801166666	-7.297161870560607	-4.901726593662122
O	-6.762409891166667	-5.437834900560607	-3.647571843662121
O	-7.883684341166666	-2.450860030560606	-5.765512363662122
O	-8.655780421166666	-4.761712710560607	-8.689768313662121
O	-5.223130151166666	-6.4352516305606065	-8.48297235366212
O	-3.121568561166666	-3.265623710560606	-8.121843263662122
O	-4.748011211166666	-2.001494610560606	-11.37192414366212
O	-4.175317281166666	-5.3156551005606065	-13.13182264366212
O	-0.5484093471666659	-5.542001580560607	-12.02934794366212
O	9.317175848833333	-0.9173880005606062	-6.120349603662122
O	5.610894378833334	-1.5582126205606062	-5.346122873662122
O	3.389040638833334	1.1228280364393937	-3.727253343662121
O	1.7350980888333343	3.018909769439394	-6.553337923662122
O	-2.003568331166666	3.187344419439394	-6.808205483662121
O	-3.3239891311666656	6.733733349439393	-7.499026193662122
O	-7.0652608211666665	6.184311839439394	-7.292533003662122
O	-8.143443271166666	2.809352939439394	-1.9816089736621214
O	-5.599291161166666	5.638332469439393	-2.5299299636621213
O	-1.792821818166666	5.250295379439393	-2.9643449036621212
O	1.4211028088333344	7.3552062494393935	-2.887154283662121
O	2.3869968388333342	8.299997209439393	0.7403555463378787
O	5.7958738688333336	6.973289479439393	1.8777560263378787
O	6.924045748833334	9.615431949439394	4.331272976337878
O	9.746640848833334	7.681548569439394	6.101182226337878
O	7.711829658833334	4.657965469439394	7.2841639563378795
O	8.315410568833334	0.9253010504393937	7.416033706337879
O	9.478341748833333	-5.847671760560607	-6.796498953662121
O	8.896713268833334	-9.483987390560605	-5.883342343662122
O	7.5389692188333335	-8.216385290560606	-10.67037714366212
O	2.308565608833334	-11.553091290560605	-1.3092665836621213
O	3.182624778833334	-11.329628390560606	4.246195346337879
O	6.648361918833333	-10.298684790560605	3.0297290463378785
O	8.502921088833334	-8.762974300560606	6.004051726337879
O	7.162030598833335	-4.052987930560606	8.475564506337879
O	5.635063528833334	-4.2687888705606065	4.996370086337878
O	8.359512418833333	-2.420134990560606	3.142188696337879
O	8.287113828833334	1.3865470114393936	3.152190716337879
O	11.125207148833335	3.839129799439394	2.6625047063378786
O	10.559552348833334	6.603683019439393	0.09162525233787869
O	12.621749948833333	9.533385659439395	-1.2591168036621214
O	11.935781248833333	1.1203546484393936	-1.1559612836621214
O	8.418327368833333	-0.03129016956060626	-1.9161310136621212
O	6.607239768833334	-3.3034793105606064	-1.2160375036621214
O	3.250980848833334	-2.652634230560606	0.3774889993378787
O	0.8039369388333341	-4.3671613605606066	2.8681187963378787
O	-1.137171097166666	-2.779243860560606	5.738579766337878
O	-3.6656087311666656	-5.591763880560607	5.983282116337879
O	-6.557522581166666	-6.9281769905606065	3.8908213563378786
O	-5.243859341166666	-9.133665520560605	1.0391192563378786
