83

O	-3.35509665367551	1.7433829078163265	-0.7592909651224498
O	-3.33496591367551	2.6302032768163266	-1.7029010551224497
O	-3.66725495367551	3.8643447168163263	-1.0304089081224497
O	-5.11719751367551	4.056949266816327	-0.9275406911224497
O	-1.8414179536755098	2.573011056816327	-1.9427291751224498
O	-0.9604049656755099	3.282271726816327	-1.1674512191224498
O	0.1370423973244901	2.6097361268163266	-0.8464315631224497
O	1.2594070763244902	3.302253236816327	-0.26911310312244974
O	-0.04611386867550987	1.4787880832163267	-1.6170320751224496
O	-1.3197127836755098	1.2632760038163267	-2.1326074051224495
O	0.5670990303244902	0.2203106468163265	-1.1586292961224496
O	0.13571842432449013	-0.9872804331836733	-1.6065679151224497
O	-1.1316312536755098	-1.2081877131836734	-2.41312500512245
O	-1.8584872236755097	0.04619635681632661	-2.75019879512245
O	-1.9112392036755097	0.30149433681632654	-4.22512807512245
O	-3.28665330367551	-0.2946642131836734	-2.4527312751224497
O	1.8169558463244901	0.46248013881632666	-0.6856531511224497
O	2.47424652632449	-0.48243236318367333	-0.07872962912244974
O	1.9973807863244901	-1.7000908231836733	-0.2610418171224497
O	0.9552155863244901	-1.9998942531836732	-1.0981684171224497
O	3.4681615563244903	-0.030893933183673283	0.8076522248775502
O	3.7419917963244904	1.3166674051163265	1.0906915348775503
O	5.035571246324491	1.5555385108163267	1.3690602048775502
O	5.58314110632449	2.6414987368163265	1.9340789748775502
O	4.865339916324491	3.803464766816327	1.9592158748775503
O	3.54688687632449	3.546167696816327	2.0462908048775503
O	3.03275026632449	2.358871426816327	1.5557065748775503
O	5.59151078632449	4.797029976816327	2.6972612448775504
O	6.9713080563244905	4.708813976816327	3.0869152648775504
O	7.224870986324491	5.437650026816327	4.36671190487755
O	6.821095766324491	6.801285326816326	4.17318340487755
O	7.878075626324491	7.758270476816326	4.36260631487755
O	6.20579562632449	7.051207876816326	2.9055719848775503
O	5.045902656324491	6.101764826816327	2.6053279448775504
O	9.856523416324489	5.604611926816326	-6.26870208512245
O	6.49198639632449	7.199894666816326	-5.956203895122449
O	5.06679388632449	5.9574342568163265	-2.51065202512245
O	1.7933131563244902	7.606225506816326	-2.7516287351224498
O	-0.21490780457550987	10.397492686816326	-4.51074281512245
O	-0.34521682267550985	7.649458856816326	-8.12441715512245
O	1.2601944563244902	4.564047866816327	-6.64704709512245
O	4.7852798563244905	3.4332450368163263	-7.31621084512245
O	7.13693898632449	0.9761043798163267	-5.67000282512245
O	8.980983536324489	-5.357011743183674	-5.77295223512245
O	5.32672731632449	-4.530324263183673	-6.3397020751224495
O	3.0284491063244903	-1.6364550231836732	-5.53115970512245
O	1.5491549663244901	-0.4567762031836733	-8.82747463512245
O	-1.3958637336755098	2.0471057898163267	-8.82931027512245
O	-1.7772078036755097	4.038934626816326	-12.04844296512245
O	-4.13595545367551	-10.464926843183674	5.85203612487755
O	-5.36731728367551	-9.091546943183674	2.57222781487755
O	-2.9107629836755096	-7.469469983183673	0.16348024687755025
O	-3.02609456367551	-0.1148575531836733	-13.70622126512245
O	-3.1775317536755097	-2.5647812331836732	-10.82987376512245
O	-0.043276027675509865	-4.437515873183673	-9.654767855122449
O	-0.36154567067550986	-5.530657193183673	-6.0328084151224495
O	1.91488283632449	-7.039890223183674	-3.2677014551224497
O	4.34651108632449	-4.4507242131836735	-1.9036577651224498
O	4.19162062632449	-3.886924063183674	1.8957014148775504
O	7.3490869563244905	-2.1013965431836734	2.88029844487755
O	6.11507806632449	-0.8544725131836735	6.21685946487755
O	3.75867609632449	1.6861161058163265	4.80386470487755
O	0.4059475843244901	2.1113450768163267	6.0239594348775505
O	-0.9629758136755099	2.0538917238163266	9.64926393487755
O	-1.7183038836755098	5.7221295068163265	9.173683214877551
O	2.0162336163244903	6.532633646816326	8.997995934877551
O	2.96736621632449	4.312465326816326	11.84052733487755
O	1.1830687563244902	9.425483646816327	12.98958493487755
O	4.82452600632449	8.719604656816326	13.90253133487755
O	-4.51250203367551	4.349381816816327	5.76633065487755
O	-5.99075179367551	1.0808496488163266	4.12812551487755
O	-4.10910210367551	-1.2463140531836732	6.46152170487755
O	-0.5789371736755099	-2.0462146631836733	5.27145404487755
O	2.37163559632449	-3.262999383183674	7.29281451487755
O	4.79542736632449	-5.874264993183673	5.99760867487755
O	-1.13847527067551	-6.282166173183674	8.89075507487755
O	-2.8900478836755097	-6.610582893183674	5.55988706487755
O	-6.10856617367551	-5.015318683183674	4.46330025487755
O	-5.78424399367551	-3.2086300831836736	1.1647742948775504
O	-7.53241751367551	-0.5709268831836734	-0.9894283561224497
O	-10.34478958367551	-2.5085600431836736	-2.38997849512245
O	-11.87880128367551	0.6672318828163266	-4.02122299512245
O	-15.21081148367551	0.4780196228163266	-2.0582764051224496
