88

O	0.07655410056730783	-5.365471888480768	3.2177758647884622
O	4.1054361875673075	-7.286499428480769	1.8658752447884617
O	-1.8083177524326923	1.3631414615192314	-0.6719717582115381
O	0.39326105756730767	0.20850347751923126	-1.374679656211538
O	-4.553793352432693	-1.7794508884807687	0.35653660178846197
O	-3.738132092432692	0.4893614315192313	1.3326251447884618
O	1.7222353075673078	-3.094894148480769	-0.37821746616253804
O	-0.7220286112326922	-3.154677238480769	0.8008617547884618
O	2.5794944075673074	-7.168023398480769	1.8824538647884619
O	2.543942147567308	-6.277324028480769	0.640090504788462
O	5.359005477567307	-10.602999928480768	3.0456517547884623
O	3.541861377567307	-8.985204818480767	0.4723509887884619
O	5.719789167567307	-8.244660098480768	0.3277273467884619
O	3.6486764375673078	-9.642388368480768	1.817689524788462
O	5.828844587567308	-9.551429078480767	1.046420784788462
O	-4.999056742432693	-1.5294765194807687	1.6592879747884617
O	-4.863324052432692	-0.1376897364807687	1.815768964788462
O	-3.5014926724326925	-1.0754697484807687	-0.24704051821153808
O	-2.644647932432692	2.1748952115192313	-0.9274197032115381
O	1.2428139975673078	-0.8568483114807688	-1.162007669211538
O	-1.7313768524326922	-0.7784266184807687	1.2871118347884618
O	-0.2688389294326922	-5.308254958480769	1.8577226647884617
O	2.273438187567308	-4.999303728480768	1.052552704788462
O	-0.8371018214326922	0.27314026451923124	-0.7088838892115381
O	-2.905368682432692	-0.20583934848076874	0.6445443447884618
O	0.1008231325673078	-4.2152674984807685	1.0648973347884618
O	1.3402070975673077	-4.169393378480769	0.4225096777884619
O	-0.9794094464326922	-0.8100784924807687	0.12037122578846193
O	0.9239036475673077	-1.9679643184807687	-0.501693661211538
O	-0.30803547643269225	-1.9988755784807686	0.14662029378846192
O	4.400020247567308	-7.7979479284807685	0.556826140788462
O	5.013981837567307	-9.472144588480768	2.225391154788462
O	-5.987017172432693	0.3738070845192313	2.992465604788462
O	-5.9502355724326925	-2.0245041984807686	-0.542462859211538
O	-3.523946102432692	-2.941505188480769	3.2015946347884623
O	-4.728643302432692	-2.392123428480769	2.597246194788462
O	-1.6202998184326922	-11.592759028480767	-5.533225685211538
O	-3.8611173124326923	-10.543254478480767	-2.712720335211538
O	-1.7914770224326921	-8.439650058480769	-0.2643664722115381
O	-4.458627262432692	-7.536441718480769	2.114057924788462
O	-7.867720842432693	-8.460869058480768	3.448105834788462
O	-9.533549792432693	-6.731557148480769	-0.5446022892115381
O	-6.275300132432692	-5.367537518480769	-2.013680565211538
O	-4.3066435924326925	-6.703490038480769	-4.757521495211538
O	-0.8975031124326922	-6.2332296284807684	-6.195410675211538
O	-1.6126780794326923	-5.807450398480769	-9.919765715211538
O	3.690505217567307	-1.2095047934807686	-13.739881265211539
O	2.6757555475673076	-2.709529638480769	-10.440725865211538
O	-0.08032543043269225	-0.9750570554807687	-8.460176265211539
O	-1.8905865424326922	-1.6108433484807687	-5.324724065211538
O	-5.612175312432693	-1.6909192884807687	-5.947120005211539
O	-8.267806292432692	-1.6905266284807685	-3.294517105211538
O	-11.650326122432693	-3.119357798480769	-4.204978685211538
O	7.475695167567308	11.540587071519232	-1.9595451452115382
O	6.286785967567307	10.533189071519232	1.5376788647884618
O	2.659546227567308	10.089655971519232	0.6797984547884619
O	1.5076067675673077	7.066772631519231	-1.346291787211538
O	0.8000160275673078	8.250456471519232	-4.9912455152115385
O	-11.797020122432693	0.7588424315192314	-6.758888275211539
O	-8.755129892432693	2.862411551519231	-6.026130945211539
O	-5.439674402432693	2.247419521519231	-7.795807965211538
O	-2.501042082432692	3.500507101519231	-5.752087805211539
O	1.354122547567308	3.326874751519231	-5.907902725211538
O	2.5732317075673077	-0.11020860748076872	-4.887049065211539
O	5.124239097567307	-0.1748776444807687	-2.023688485211538
O	7.169380727567307	-3.384764818480769	-2.270860795211538
O	8.441093607567307	-3.291945828480769	1.390935184788462
O	5.021329187567307	-3.865202148480769	3.0248172747884623
O	3.7762756075673076	-1.7774770684807688	5.946696684788462
O	5.705676297567307	-0.6277539764807687	9.025755844788462
O	3.4409769475673073	-2.9197285784807687	11.007131834788462
O	4.992825867567308	-6.014424328480769	9.342492434788461
O	8.515209857567308	-4.775864098480769	9.621287664788461
O	9.247342767567307	-9.180861258480768	12.306445334788462
O	-0.09534093243269226	-0.3395209324807687	9.397074484788462
O	-0.7616324109326922	3.034545221519231	7.464804914788462
O	2.886364307567308	3.602717741519231	6.726057074788462
O	4.3414605575673075	1.841575021519231	3.6972957947884617
O	7.935529337567308	0.9848395615192312	2.8455672647884622
O	9.414612077567307	1.2999327415192314	-0.6885704012115381
O	8.392608287567308	5.650839321519231	4.213765124788462
O	5.115018287567308	6.778025611519231	2.705139574788462
O	2.0001945775673073	7.668216601519231	4.523777194788462
O	-0.9880608264326922	5.9423829815192315	3.106029934788462
O	-4.5776232524326925	5.098366001519231	3.878399204788462
O	-6.308035212432692	8.369921671519233	3.3799832947884623
O	-9.685772002432692	6.996890191519231	4.674018674788462
O	-9.907934772432693	9.439637671519232	7.704369524788461
