80

O	5.040893575272548	1.2353135232549017	1.8916248367647066
O	1.276636655272549	3.027279718254902	1.2246269267647063
O	1.1024784052725494	-1.5353615117450985	1.8626648667647063
O	-0.9849844817274508	-0.8789574317450983	2.227650966764706
O	2.248926885272549	1.9840068692549016	1.1208543367647064
O	-1.388813492727451	3.1997910682549016	1.4449014867647063
O	3.111949195272549	-1.1007645917450983	0.9837829767647064
O	1.8005458752725492	0.6817150042549016	1.3032606867647063
O	-3.7432146247274507	4.247729988254902	-0.8121418152352937
O	-6.952009504727451	5.680045818254902	0.24210046776470634
O	0.4623157752725491	0.5477405342549017	1.3503029267647064
O	-3.8629157947274506	3.0198608582549014	0.9769288567647063
O	-0.024676444727450786	-0.7673969517450983	1.3878583867647063
O	2.1570194652725494	-0.6753749317450983	1.5162905267647064
O	3.3067168952725488	2.0601484222549016	0.08105042576470634
O	4.431928775272549	2.4367796762549014	0.7059812367647065
O	5.56859452527255	2.9112573482549013	-0.004561238235293641
O	5.308137955272549	3.6704104182549013	-1.1243528832352936
O	3.969903665272549	4.029134948254901	-1.3163640022352936
O	3.121491695272549	3.0927476182549016	-0.8820234572352936
O	-0.2663686247274508	1.6367834912549015	1.0264791567647065
O	-0.0750766447274509	2.965285518254902	1.2644854267647063
O	-0.6185978307274508	2.0894151082549017	-0.10131219923529367
O	-1.671606309727451	3.0861916882549014	0.14881978576470628
O	-4.7984822647274505	5.137389628254901	-0.7318003902352936
O	-6.24519226472745	4.845842138254902	-0.5946688862352937
O	-1.9868344487274507	2.913855958254902	2.6961666667647064
O	-3.1262629147274508	3.1754470282549017	-0.09289540623529369
O	0.5222236252725492	2.1600966042549015	-1.4736291532352936
O	-3.914817974727451	7.876811638254901	10.505951236764707
O	-2.217662424727451	9.329641088254903	7.470399616764706
O	-3.3124275547274507	7.343937638254902	4.4696862767647065
O	-1.1983147266274508	8.757456128254901	1.6777174067647063
O	0.6885396452725492	11.789902548254902	0.7008600867647063
O	3.8070722252725493	10.315071558254902	3.7019911367647067
O	2.3204578852725493	6.915535248254901	4.531268306764707
O	0.6760879552725492	6.0860214282549014	7.887305456764706
O	-1.481229773727451	3.1992519482549016	9.101050006764707
O	-1.3923989477274508	-2.860135401745098	11.641608836764707
O	1.2317894152725493	-1.8599040617450984	9.154828756764706
O	1.5982817252725492	0.6596713742549016	6.348398996764707
O	4.65910980527255	2.7601419382549017	7.186889686764706
O	6.108524215272549	5.175569018254902	4.616363746764707
O	8.241413015272549	8.023015448254903	5.972473236764706
O	0.8058925652725493	-11.094375851745097	-4.5434177532352935
O	3.5647366552725495	-8.776853751745097	-3.5389282932352937
O	3.1298361152725493	-6.556836821745098	-0.4873671172352937
O	5.13523006527255	-8.118253441745098	2.4707582667647063
O	11.12161275527255	4.550075578254901	7.026326876764706
O	9.785615355272549	1.3234725422549016	5.641796836764707
O	7.163114135272549	-0.8049347317450983	7.504206386764706
O	5.124204515272549	-2.904685121745098	5.081559856764707
O	2.026968605272549	-5.152408371745099	5.175784636764706
O	-1.1453809237274508	-3.0832815917450986	5.530199406764706
O	-3.7411285947274506	-3.7813170617450984	2.8429676867647062
O	-7.01958930472745	-2.6083338817450983	4.1936046167647065
O	-8.816333524727451	-2.4352256917450985	0.8134999467647064
O	-6.937959134727452	0.4833529182549017	-0.5733117942352937
O	-5.446502474727451	0.4211285682549015	-4.170678863235294
O	-6.9130025047274515	-0.5983171017450986	-7.403748003235294
O	-6.94713279472745	3.054346238254902	-8.450665553235293
O	-9.66280915472745	3.8379336982549015	-5.818468303235294
O	-11.70448964472745	0.7821156922549016	-6.457871053235293
O	-11.61015114472745	1.7195324282549016	-10.226138303235293
O	3.2254650552725495	-11.349913051745098	-8.725596053235293
O	-3.6234571447274506	0.7230812512549016	-10.364103143235294
O	-2.324740564727451	3.1092729382549016	-7.5908628632352935
O	0.5772070352725491	0.6335474382549017	-6.869695873235294
O	-1.7241305147274508	-2.4036488917450987	-6.640302823235293
O	-3.175504954727451	-2.9954515817450984	-3.180812653235294
O	-6.289199894727451	-4.8835066517450985	-2.1367027832352936
O	-6.484264944727451	-7.017199091745099	1.0061031167647063
O	-4.2820078847274505	-8.128684961745098	-5.162629743235294
O	-0.7333597107274508	-7.326090141745099	-4.191954233235294
O	1.829841665272549	-5.411175731745098	-6.114531243235294
O	3.4557939652725493	-2.716733141745099	-4.137604113235294
O	5.47089067527255	0.5129775742549016	-4.4203311932352936
O	8.83813825527255	-0.9937603317450983	-5.410862533235294
O	10.26819765527255	2.5744980782549014	-5.961628323235294
O	11.24397525527255	1.9036645142549016	-9.675387813235293
