35

O	2.3626425391574806	54.12917472117057	30.426589267892414
O	0.0606435914675183	51.132418462617885	27.131275205617122
O	4.401380294229615	54.07963927382702	16.346443403669944
O	5.860686929330983	53.783036046359285	16.544957981408352
O	6.551539614877411	55.07222848675891	16.593966640624714
O	7.933243889713561	54.74957326628623	16.965016240240864
O	8.49478183312613	56.04967806170249	17.534388979680504
O	6.044079465987081	55.69095358013254	17.839756377026525
O	6.242220630115759	54.57469932030699	18.821236401443414
O	4.926694228249253	54.34034146319717	19.254647086388495
O	4.947256295239601	54.8275026822732	20.5705816758344
O	4.576483521970649	53.91648496896768	21.50141187355509
O	5.372301038932631	53.93868937961567	22.647801273834908
O	6.51410716165384	54.742038751953714	22.70129024798719
O	7.043034007387765	54.92655257322359	24.0231925984611
O	6.241587441065985	54.73556437533521	25.16448482614625
O	5.038072542152495	54.25322074873884	24.90944802745905
O	4.156864404578077	54.05462030782947	25.90256613642355
O	4.492746454896174	54.166477965335865	27.252554874287405
O	5.764584577321162	54.58971250729324	27.489446711054754
O	6.593361252385291	54.87051955660273	26.437493478281958
O	3.4481371801458973	53.90317882789761	28.106298332113404
O	2.2623132075812697	53.35007337940479	27.56039254335495
O	2.011241749092547	53.3635107309727	26.18377603811822
O	1.0204938499697978	52.90618374367187	25.575499075660577
O	2.9060262535961066	53.94966487936103	25.45087401653065
O	2.5025272192302705	54.15157582750903	24.041931172624533
O	0.9726128641543532	53.42408610641356	28.265832277322524
O	0.9761494693651294	54.15821844563124	29.382049419352136
O	-0.22285323494248743	54.19989223544795	30.11808574129245
O	-1.2952475609746505	53.365462696332216	29.807427072299213
O	-1.3018463064865315	52.958878316666315	28.469824896442077
O	-0.07908876703817036	52.72059433439846	27.8184135214154
O	6.333449451802875	55.93849911742351	22.07898899993099
O	5.4682500564055605	56.00387445395357	20.990782184738503
