79

O	-2.055582267647059	2.8403943976231374	3.8610555363137258
O	-0.5159490646470589	3.1552424476231375	-0.09351872268627426
O	-0.19905144864705893	-1.0912564623768626	1.5217142163137258
O	-1.4484293364470588	-1.7587764323768624	-0.38107535168627427
O	-0.6511079446470589	2.6069223076231376	1.1450178763137258
O	-1.3593835376470589	2.9014076376231372	-2.2979240236862744
O	0.9369849913529411	0.4823232236231374	2.5652758963137257
O	-0.442536828647059	1.2220466356231374	1.0715018863137256
O	-3.7077293486470593	-1.4076578923768626	-4.422477663686275
O	-4.182476428647059	-0.47581386237686263	-6.425280173686275
O	-0.8801539036470589	0.5072658596231374	0.007221567313725696
O	-0.849641587647059	-0.8824795723768626	0.33767006631372565
O	-0.16927895864705889	0.22690249162313736	2.116063686313726
O	-0.10350918864705894	3.4346288776231373	2.199859366313726
O	-0.42546777864705887	3.3260782276231375	3.5176354063137256
O	0.375566281352941	4.073912207623137	4.381050816313725
O	0.7900132313529411	5.340270007623137	3.984371516313726
O	0.5229381813529412	5.684311837623137	2.6863691263137257
O	0.15623125135294114	4.773520757623137	1.8062313363137257
O	-1.219660026647059	1.2480354336231374	-1.0454493676862744
O	-1.350761660647059	2.635061597623137	-0.9922924796862742
O	-1.9878425176470589	0.8809359176231374	-1.9370574036862744
O	-1.887539997647059	1.8867129886231373	-3.0711209736862743
O	-2.480588320647059	-0.38270162237686267	-2.6410376236862745
O	-1.755580359647059	1.2321092216231373	-4.357870343686274
O	-3.300494278647059	-0.11965779237686269	-3.728471243686274
O	-2.795869968647059	0.6806250876231373	-4.861478763686274
O	-4.392207668647059	-1.4653801423768624	-5.655699743686275
O	-12.97508203864706	0.6810067926231373	-3.139865783686274
O	-10.865544428647059	3.7958479676231374	-3.083764423686274
O	-7.491701898647059	2.8994332176231374	-4.529735103686274
O	-5.574424388647059	6.1084419076231375	-3.9843569836862742
O	-5.8645263286470595	9.720637897623137	-3.5055211436862743
O	-7.239457798647059	8.672506477623138	0.7023089363137257
O	-6.456505398647059	4.971186067623137	0.7345788363137257
O	-9.10218340864706	2.2988738176231376	0.6136825263137257
O	-9.090764208647059	-1.4262137923768625	0.07464492031372572
O	-11.150251328647059	-2.8687427623768627	2.9436348263137257
O	-8.240455968647058	-7.374341362376862	2.784631746313726
O	-6.248494638647059	-4.461661922376862	4.052195216313725
O	-5.1642474686470585	-1.1889392023768628	2.703041986313726
O	-6.433029248647059	1.5708423936231375	5.023834546313726
O	-5.100571568647059	5.190851177623137	4.7234579963137255
O	-7.497019038647059	7.850134407623138	6.161478976313726
O	10.03524856135294	-6.640004192376862	1.9672590263137257
O	8.42111834135294	-3.998615752376863	4.055233366313725
O	4.631079661352941	-3.6382765623768627	3.9786495063137255
O	3.151576801352941	-5.217831572376863	7.2345166263137255
O	1.2997911813529412	-2.871792952376863	9.634412036313725
O	-6.190840408647059	5.878340767623137	10.122180336313725
O	-3.6032918786470587	3.2481267976231374	9.476469136313725
O	-4.440578568647059	-0.2911349923768627	8.396128156313726
O	-1.6884383566470589	-2.0433694023768627	6.531672646313726
O	-1.075561405647059	-5.173369922376863	4.452446856313726
O	-2.8427130286470588	-5.008475892376863	1.1427650263137257
O	-0.584131952647059	-5.522205312376863	-1.926027413686274
O	-2.761665258647059	-6.541189052376863	-4.8069234636862745
O	-0.16153704864705887	-5.946749572376863	-7.5737616036862745
O	-0.15373691864705896	-2.1881257323768626	-7.301411343686275
O	2.9848681313529406	-0.03930066237686258	-7.054251143686274
O	6.100881891352941	-0.28530178237686266	-9.101215753686274
O	5.210970771352941	3.0694173976231376	-10.618396913686274
O	2.144348711352941	1.5063412916231373	-12.385405363686274
O	3.968231141352941	-1.5701792523768625	-13.510093963686275
O	14.06577956135294	-4.088910782376862	2.8590937163137258
O	5.2319774513529405	4.746231477623137	-6.253937493686275
O	6.193214121352941	3.6704755976231374	-2.6326548936862744
O	7.160469121352941	0.1349224876231374	-3.6754486536862743
O	4.2366943413529405	-2.2917177323768625	-3.6784526936862743
O	3.890396531352941	-5.6011336823768625	-5.482504343686275
O	2.220775981352941	-8.679810362376863	-3.9609154436862744
O	8.370935891352941	-6.168067452376863	-3.711402433686274
O	7.642669561352941	-4.406581222376863	-0.45777818968627426
O	8.66984376135294	-0.9772930223768626	0.6101891663137257
O	5.827773761352941	1.1185565838431373	1.8301643063137258
O	4.746171621352941	4.692952347623137	2.5266422463137257
O	6.66903129135294	5.305508537623138	5.702243906313726
O	5.739941531352941	9.040180867623137	5.719998256313725
O	9.38296426135294	10.338519627623137	5.616269716313726
