29

O	1.5237515034799514	55.086332690820896	30.30304593665785
O	2.06144644152101	54.451102073609746	26.163840042733558
O	5.9887009270426175	54.56664182020687	28.575984581422134
O	6.6515057179882975	54.90616729618463	26.486249015782843
O	2.367543861409926	54.27629528367048	27.54958252782154
O	3.4264775113584194	54.56629300355373	23.860293479893464
O	4.410511764059614	53.835297356988875	29.980881359577054
O	3.710017045836914	54.29120650926325	27.907108908302625
O	3.604900942774866	52.334462147067526	21.267472382194214
O	4.333773234709108	53.39325005688466	17.831335982962738
O	4.569364336417681	54.261308701037784	26.871903476160377
O	4.893753099409879	53.96771311913201	21.89525914575694
O	5.926710059988658	54.12921736184676	27.201027931060104
O	4.654037326267821	54.36745768676149	28.964066663161198
O	1.5940533698815846	53.30133155148656	28.36017958871012
O	0.7329248431094246	54.01558070771415	29.099636956059484
O	-0.37322289825010735	53.41560501635997	29.761811435557153
O	-0.9858700188696696	52.37684983775536	29.095676673457874
O	-0.5603055424118946	52.16470178065025	27.780263943012063
O	0.7331247768532165	52.45216311104323	27.607985666989926
O	4.039621386545676	54.02798532784611	25.652563506506695
O	2.8681963481395716	54.421494910671576	25.077175959253076
O	3.7292755972580696	52.94281408329512	25.0807742113928
O	3.5236205360012773	53.25399523970668	23.65745811829322
O	3.468551233514029	52.46502457794078	19.897837021933654
O	4.528515906584952	52.501953962645985	18.86251778382323
O	4.142214420463283	55.748899523373055	23.55334886298
O	4.229750448311998	52.957037294204	22.39428152186059
O	2.8747743310825546	51.64098797172853	25.95530245675166
