28

O	1.0935406566819919	55.87701193533823	29.71414442087538
O	1.9471674782322053	53.08543304232048	26.61791028924029
O	5.735990694432192	54.55930207998941	28.67087965946311
O	6.469856136262234	55.23844074386535	26.519752432756516
O	2.187596441851833	53.77729104415088	27.7652647351684
O	2.4413429305419965	53.1806524855587	24.298009336170693
O	4.287345315723643	53.435160279840964	29.89296172752136
O	3.568811666411949	53.963306391989704	27.921565509076803
O	6.434913877846365	55.81870791310643	21.912939817446954
O	5.844048616615202	55.30949847362011	19.79243988344891
O	4.364260782270793	54.206705416122546	26.8523927079768
O	5.627524577168055	54.68870629190757	27.31430105162101
O	4.3675968042703746	54.352102920178154	29.0906979430118
O	1.3117783341103157	53.39954904782482	28.85517608889539
O	1.0746286355555643	54.15923791425665	29.95908148139205
O	0.37173253737744005	53.51303957736671	30.976314090835352
O	-0.6585690947639353	52.644850989651616	30.63351685922209
O	-0.7847668925316293	52.35302676089284	29.301819895601653
O	0.17630743201136934	52.65045936279711	28.449454432122312
O	3.794097074421247	53.94776250123082	25.67766636546505
O	2.432727900128818	53.68477773387994	25.5314888835206
O	4.1477519797620666	54.44569318576626	24.60676743217927
O	3.4426602640110238	53.68856312518556	23.49440596367492
O	5.380197986966241	55.01639747474826	23.906381921987457
O	4.356510173191437	53.32904830243793	22.427976962408188
O	5.161672135381455	55.31446319699332	22.569462705361808
O	4.744775186741126	54.25365759514394	21.631543288812615
O	6.582346572157995	56.03869692943499	20.52638020436232
