85

O	1.1478713369720006	-3.23917251198	-3.3507865283000005
O	-2.991077993027999	-0.72930125198	-4.657877458300001
O	-2.2323747330279993	9.97286652802	0.7020364216999997
O	-2.1852417330279996	9.55706310802	2.1448958616999994
O	-0.8225620910279994	9.81131003802	2.6141070316999997
O	-0.7691501830279994	9.23111140802	3.9599924716999997
O	0.7168644269720006	9.00491597802	4.2252826217
O	-0.004083049027999386	8.84954239802	1.8411751616999996
O	-0.7633873440279995	7.5757765280200005	2.0638049617
O	-1.1187622410279994	7.22349909802	0.7511788016999998
O	-0.30660531502799937	6.105963708020001	0.5043013516999997
O	-0.9924673270279993	4.99439000802	0.14671529169999986
O	-0.5186397245279994	3.8303838580200003	0.7538432016999999
O	0.4707348469720005	3.8977974680200003	1.7379904816999996
O	1.0940904269720007	2.63874092202	2.0336917116999995
O	1.0636285769720006	1.57396902602	1.1135428517
O	0.3130277289720006	1.79637538902	0.04898612169999983
O	0.22119400697200065	0.87845521802	-0.9263305563000002
O	0.7468281769720007	-0.40936262197999973	-0.8121709753000002
O	1.4496151369720007	-0.6379883119800001	0.33091179169999974
O	1.5937808269720006	0.3645965580200001	1.2508948416999999
O	0.5261723169720005	-1.19699185198	-1.9168718633000004
O	-0.3648297460279994	-0.7191893019799998	-2.9108222183000003
O	-0.7629831600279994	0.6215500280200001	-2.9575378483000003
O	-1.5430628010279994	1.16720681702	-3.7665277483000006
O	-0.2332965350279994	1.4007184050200001	-2.0666449883
O	-0.4904641210279994	2.84091172702	-2.2866619583000003
O	-0.3518197510279994	-1.24528226198	-4.2854156183
O	0.6379946769720006	-2.10022613198	-4.5578892583
O	0.6456031569720007	-2.67354043198	-5.8433255583
O	-0.4279839360279994	-2.5113838219799995	-6.7173547583
O	-1.1670122350279994	-1.35153894198	-6.4660959083
O	-1.3337642710279995	-0.9173580219799997	-5.1394713483
O	1.4040460469720006	4.85031687802	1.4677120416999998
O	1.0153347369720005	5.99060208802	0.7707965816999998
O	7.372062506972	10.15290966802	-3.4451433983
O	4.352654306972	9.10125834802	-5.4367924783
O	1.6815114069720007	7.75696683802	-2.9066727183000003
O	-0.8417278420279994	6.49143923802	-5.4972155783
O	-2.0584399330279997	6.8864275380199995	-9.0366586283
O	1.6018921569720008	4.46881633802	-10.1988242783
O	2.8135317769720007	3.5226672380200004	-6.7489098183
O	5.825662426972	5.03280605802	-5.0635485283
O	7.325852156972	5.03937225802	-1.6069116323000001
O	10.964288156972001	4.01221071802	-2.1624930383
O	11.079110056972	1.6668481650200002	2.6437897217
O	8.902304436972	-0.21983712197999994	0.2012379016999999
O	5.741824846972	0.44819870802000006	-1.8083933133000003
O	6.571366486972001	-0.1934640019799998	-5.4342699883
O	3.848049666972001	-0.34733630198	-8.083924488300001
O	5.0119565669720005	0.3814074780200001	-11.6580126383
O	0.7102660869720006	-10.43684371198	9.4779565617
O	-2.610265623027999	-9.23590061198	7.981287131699999
O	-1.6655217130279993	-9.53319641198	4.3747554617
O	0.8074569769720006	-7.02470907198	2.9031495216999996
O	7.1218319569720006	-3.71489211198	-11.1024282483
O	6.135360716972	-5.18037850198	-7.7622611583
O	8.001112956972001	-4.24170245198	-4.5447112983
O	5.851590486972	-4.76141958198	-1.4420271733000003
O	5.7946104269720005	-3.8821627719799996	2.2830912917
O	5.191086486972001	-0.19856224197999994	2.8146124416999996
O	2.3339020669720005	0.6718393980200001	5.1955373917
O	2.9394862669720005	4.08659090802	6.5977453217
O	-0.6856670526279994	4.63707762802	7.7999851617
O	-2.1811377530279996	4.770752418020001	4.2124704217
O	-5.306000493028	2.9375312890200003	3.3428997017000004
O	-8.524761803028	2.50604075502	5.3290889517
O	-10.207144773027998	4.61959002802	2.6896329216999995
O	-8.146614123028	7.69039198802	3.7700198716999997
O	-8.608251293028	7.0874850380200005	7.4239481416999995
O	-10.761805543027998	11.83911465802	7.322882751700001
O	-8.808544563027999	1.4186578820200002	-0.32425103030000024
O	-7.3240328130279995	-2.23650906198	-0.4190723273000002
O	-6.804762633028	-2.3803575919799997	3.3453637217
O	-3.5727324230279995	-0.8010377719799999	4.5793643017
O	-2.6531780730279992	0.51998747802	7.9894832517
O	0.7890154169720005	0.055208918020000164	9.585241261699998
O	-4.638522823028	-3.77711190198	9.1871891617
O	-3.2665879930279997	-5.6313821519800005	6.2000957017
O	-5.0823264030279995	-6.7570219519800006	3.1206768317
O	-3.380661453027999	-5.66268768198	-0.0623318783000002
O	-4.044565353027999	-5.1874506919800005	-3.7741150483000006
O	-4.042077913028	-8.78501251198	-4.9209659683
O	-5.1385000430279995	-7.77150135198	-8.4938035583
O	-8.413956373027998	-9.841119411980001	-8.4377666883
