75

O	-1.0956792993580002	2.27418075768	2.277526802862
O	0.8164662535419998	1.4578891926800002	-1.5484571071380004
O	-0.8258594494580003	-0.14360581231999991	-2.014187037138
O	0.18372015354199966	1.95286575568	1.9982446328619996
O	-3.1429066064580002	0.68522258568	1.8810593728619995
O	2.4246255335419997	1.74997426768	0.10244595386199962
O	0.3693225535419997	1.6691418046800002	0.6876416697619996
O	0.1473618935419998	0.1638711356800001	4.662068182862
O	-0.5808639474580003	0.90235657168	0.08541284786199965
O	-0.11320117645800032	0.5131715706800001	-1.1738946771380003
O	1.3102970735419999	2.02502415268	-0.3236866401380003
O	1.1231493535419999	2.49625613768	2.897089392862
O	0.7540061435419998	3.06539031768	4.1198369328619995
O	1.7707727935419997	3.28591659768	4.999105842862
O	2.8058857735419998	4.01849611768	4.431554542862
O	3.1215852135419997	3.74807884768	3.1367813128619995
O	2.1948406635419997	3.1315160676800002	2.373580892862
O	-1.6069641894580002	0.4408772406800001	0.7669202948619996
O	-1.9912164734580002	1.35773816868	1.7360360728619997
O	-1.5489954874580003	-0.75216842232	1.3024335318619995
O	-3.054893026458	-0.7622865023199998	1.5933326468619997
O	-0.5348086464580003	-1.04486191232	2.4672243228619997
O	-2.8572565364580003	-1.2823722123199999	2.788270472862
O	-0.5663830464580003	-0.2916932423199998	3.6694693728619994
O	-1.8494201624580002	-0.17898541231999987	3.4032999828619994
O	-12.625264816458	4.54347379768	1.1839265168619997
O	-10.525283056458	4.01775817768	4.226538412861999
O	-8.480633986458	0.86350608768	3.5693907428619998
O	-6.193804416458001	0.8725154156800001	6.620799382862
O	-5.963951716458	2.02625380968	10.159158552862
O	-5.070446276458	6.08878069768	8.317551422862
O	-4.776418286458	5.17031734768	4.667096532862
O	-7.327679416458	5.9669795176800005	1.9885159828619996
O	-7.939057826458	4.78439948768	-1.5400410471380004
O	-6.410914356458	5.74348234768	-7.889108017138001
O	-3.7408203464580003	6.19970016768	-5.2707744871380005
O	-3.2051627464580004	5.11042806768	-1.8420155571380004
O	-2.7345633564580005	8.05212833768	0.5170976468619997
O	-1.4827062354580003	7.69656670768	4.124597572861999
O	-2.428156106458	10.53433841768	6.501224352862
O	8.634240273541998	-4.63324520232	-7.043495097138
O	8.666858003542	-1.64635194232	-4.780238277138
O	5.487655003542	0.3738627546800001	-4.426166227138
O	5.805306663542	3.64411304768	-6.563335117138
O	5.769696223542	6.97304916768	-4.624420447138
O	0.6608561435419997	12.69555746768	3.9152489128619994
O	2.190817483542	10.377896847679999	1.4318066248619996
O	0.5377805635419997	9.44337771768	-1.8690018871380005
O	1.651195303542	6.17393720768	-3.3185579271380004
O	0.7425241935419997	3.61130965768	-6.028660307138
O	-2.5375323864580004	1.8372164996800002	-5.304327927138
O	-2.2993593764580003	-1.97827962232	-5.044989077138
O	-5.758003566458	-3.28619144232	-5.2029291671380005
O	-4.996830516458001	-6.8464767023199995	-4.202793067138
O	-4.362439986458	-5.90212533232	-0.6105203171380003
O	-1.3315574234580003	-7.32058040232	1.1932192658619996
O	0.14672585354199974	-10.77651363232	1.2777442718619998
O	-1.0505323575580003	-10.972200832319999	4.888482052862
O	-4.737360146458	-10.974323032320001	3.7522181328619997
O	-4.193033556458	-13.36149253232	0.9132381428619997
O	12.777647383542	-5.68639096232	-4.727094637138
O	1.5768056735419997	-7.21165389232	5.698429542862
O	4.210960663542	-4.85497249232	3.9586997428619997
O	4.055089023542	-6.8173199023199995	0.6487833312619996
O	1.2995554135419995	-5.6121680423199996	-1.7158783771380002
O	-0.4357894664580003	-7.331822422319999	-4.526186897138
O	-1.4306607564580003	-5.65809222232	-7.7614150771379995
O	4.2508540735419995	-8.376525782320002	-5.562044997138
O	5.602099523542	-5.04532967232	-4.399392917138
O	7.387337673542	-4.1505553623199996	-1.2129338171380004
O	5.8549911635419996	-1.28347344232	0.6677974193619997
O	5.6234501735419995	0.3358541826800001	4.146534612861999
O	8.810711983542	2.0779433476799998	4.208007232861999
O	8.557038643542	3.16760374768	7.841739742862
O	11.737765383542001	1.3437348396800002	9.048474522862
