82

O	2.8653811743372546	-0.7431547956470592	-0.8451295292041174
O	-1.0482899556627454	1.5271231743529408	-0.26143878629411743
O	-1.4244699556627454	0.9994741353529408	-2.4380495502941173
O	2.2061175343372548	-0.0947380216470593	0.1609638897058826
O	2.6602396743372547	-1.8341809656470593	-3.0807644702941173
O	-0.1569827355027455	1.2644475393529406	1.8022823697058827
O	0.8973951243372547	0.22589611335294071	-0.04132221229411748
O	0.9706331443372544	0.10713304235294074	-7.088471990294118
O	0.4721850933372545	0.16143660635294071	-1.3678686662941175
O	3.8387824143372544	-3.6282295656470596	-0.41487098229411745
O	-0.6107078776627455	1.0951872733529406	-1.5559237332941174
O	2.6582288843372543	1.7657645543529408	2.4366879097058827
O	-0.0011624566627455035	1.1414042353529408	0.5973727097058826
O	2.6277691543372543	-0.35340151764705924	1.5189057297058826
O	3.4008189143372545	0.6637934343529407	2.0868555097058827
O	4.485485514337254	0.40288277635294073	2.9252692697058826
O	5.165100164337254	-0.7868082356470592	2.6777317897058825
O	4.387805774337254	-1.8730889456470592	2.4039838197058825
O	3.1034063643372547	-1.6205582356470594	1.9089206097058828
O	1.0548691543372546	-0.6235202956470591	-2.3241112402941173
O	2.2539852143372547	-1.1774379056470592	-2.0137206802941177
O	0.9621773143372545	-0.8316353156470593	-3.6893516202941172
O	1.6525382743372545	-1.9915984256470594	-3.990926220294117
O	0.2500207523372545	-0.3959910926470593	-4.755833610294117
O	1.8703440643372544	-2.4321386956470596	-5.297955810294118
O	0.5408754853372546	-0.7334866756470593	-6.084126350294118
O	0.9775721843372545	-2.0153343856470594	-6.286027010294117
O	3.6423653143372547	-2.7796790956470594	-3.3758755102941174
O	3.2017328443372546	-3.99900131564706	-2.7735569102941176
O	3.9469196243372546	-4.361206365647059	-1.5608606802941174
O	2.3125380743372546	1.8694911643529408	3.8209897397058827
O	7.930607454337253	4.398679074352941	-9.877353980294117
O	9.199296254337256	2.1751954443529407	-7.129012450294118
O	6.514426304337254	-0.41498732964705926	-6.1880987602941175
O	8.203986234337256	-1.9744558256470592	-3.3504396502941174
O	11.412759934337254	-2.7083313856470594	-1.6203820172941175
O	11.227187634337255	1.7140942043529408	-0.31376365829411745
O	7.638348314337254	2.4230944443529405	-1.4339894752941174
O	6.8931876943372545	4.639026254352941	-4.376278590294118
O	3.8811399243372544	5.552333074352941	-6.397593070294118
O	-1.5477520556627455	9.27061015435294	-6.844272390294118
O	-0.37329823666274553	8.101462224352941	-3.448953430294117
O	1.7351678943372546	5.316142124352941	-2.1378785102941174
O	4.595175214337254	6.764015284352941	-0.1933547552941175
O	6.824538274337254	4.588202384352941	2.0344859197058827
O	10.293198834337256	6.154288064352941	2.7389878597058828
O	-11.402075265662745	-1.7094207856470593	4.008814559705883
O	-8.373976595662745	-0.14428281664705928	5.5866130997058825
O	-5.854295535662746	1.7292888443529408	3.407412559705883
O	-6.485646825662746	5.553575934352941	3.935630819705883
O	-3.6038678456627453	7.552368244352941	5.455100999705882
O	10.566183734337255	8.81613328435294	7.682793519705883
O	7.7614725843372545	9.11187442435294	5.205600999705882
O	4.177754434337254	7.945821894352941	5.188329669705882
O	1.8048066743372546	8.97190278435294	2.3587532497058827
O	-1.0682202856627454	6.514812314352941	2.0289180197058827
O	-3.9522574356627453	5.776227524352941	-0.42592840329411746
O	-2.7547797956627456	4.275551204352941	-3.5854133202941174
O	-4.281915035662746	0.7825112033529407	-4.539777620294117
O	-3.6818478456627455	0.1119300083529407	-8.116438400294117
O	-4.472478615662746	-3.623882465647059	-8.024665020294117
O	-1.4667024356627454	-4.679737275647059	-6.112310770294118
O	-1.5289028056627454	-6.940625025647059	-3.0662399202941173
O	-3.4225683456627456	-10.14495838564706	-2.6391402502941173
O	-0.1115129728627455	-11.94963848564706	-2.5968658302941177
O	0.5331671883372544	-11.01751398564706	-6.277813660294118
O	-2.9572613956627456	-11.84944078564706	-7.371378590294118
O	-11.678466865662745	-4.116457525647059	8.203052199705883
O	0.8848792443372546	-9.33095492564706	1.1184557897058824
O	-0.5999091296627455	-6.685368215647059	3.5145752897058826
O	-4.013651565662745	-6.794247385647059	1.7628802597058826
O	-4.2624520056627455	-4.328531195647059	-1.1637107782941174
O	-6.6897027256627455	-4.403875075647059	-4.080614980294118
O	-8.361975445662745	-1.2992292756470591	-5.5462751102941175
O	-9.789333515662745	-5.279924935647059	-0.4555710792941175
O	-8.079245715662745	-3.0014368056470593	2.011355509705883
O	-5.923767105662746	-3.9394886656470596	4.913301939705883
O	-2.6231945356627455	-2.1698931356470594	4.922737129705882
O	0.8181201073372546	-2.2348782056470595	6.429761439705882
O	0.0783965783372545	-1.1407497056470592	9.945273079705883
O	3.6934898843372546	-1.8810515656470594	11.094205579705884
O	2.6937675443372546	-4.475779225647059	13.766474979705883
