76

O	-4.151954458452381	0.7559120193333337	7.3755103950333325
O	-2.9570307384523806	1.4556787443333337	7.882793375033334
O	-2.689970948452381	2.3729358713333335	7.090457145033334
O	-1.855977767452381	0.5748603243333337	8.183898885033333
O	-0.8213268324523808	1.2091111619333337	8.918959215033333
O	-0.05812578445238081	1.9802327753333335	7.949190745033333
O	-0.40934674845238084	3.0934461413333336	7.658314115033333
O	0.8475708415476193	1.3856427493333336	7.110220765033333
O	0.3680125915476191	0.10862764133333358	6.681858605033334
O	1.4862283115476191	-0.2934655286666663	5.844597925033334
O	2.360443991547619	0.8750270723333337	5.620116435033333
O	1.3555460915476194	1.9390598793333336	5.8686088050333325
O	0.2992636915476192	1.4998501273333336	4.892037285033333
O	-0.5320709424523808	0.7690454233333337	5.668076825033333
O	-1.6000063414523809	0.2826568793333336	5.054970655033333
O	-1.977536960452381	0.7684047303333337	3.8760858450333333
O	-0.9472640970523808	0.7862873973333336	2.904429765033333
O	0.25497905154761913	1.2099386211333336	3.523429705033333
O	-1.380463482452381	0.42338407133333367	1.6264021160333333
O	-0.8514595644523808	0.6294671883333337	0.3339784170333332
O	-1.3220413834523808	0.3867311583333337	-0.8800459249666668
O	-0.5746860894523809	0.5747442753333336	-2.023122504966667
O	0.7098461315476192	1.1039901373333336	-2.005711814966667
O	1.0031237215476192	1.4513800353333337	-0.6950340149666667
O	0.3846540615476193	1.1097973464333337	0.4103492150333332
O	2.3258284615476192	1.9742132173333338	-0.49260854496666684
O	3.0981413615476194	0.9841288343333336	0.005267595033333183
O	3.0695829915476196	0.5704824713333336	1.4468813280333332
O	4.532856811547619	0.9146563403333337	1.5960863140333332
O	4.578981211547619	0.9707478993333336	0.07827883503333322
O	1.761427861547619	1.4693332233333336	-2.939645164966667
O	3.0257678315476193	0.8995524863333337	-2.6952360049666666
O	1.767704701547619	1.7301059163333337	-4.226325424966667
O	2.3387461615476193	2.7343269113333335	-2.502202104966667
O	-6.3779203184523805	10.994937681333333	3.6735106950333334
O	-2.755469638452381	10.380770321333333	4.768075745033333
O	0.8132894115476192	9.638664801333334	3.778446495033333
O	1.407471541547619	5.801734291333334	3.890000355033333
O	4.827054931547619	5.634699451333334	2.307940895033333
O	7.950561511547619	7.7294302513333335	1.8693086620333332
O	5.6636926715476195	9.781980451333334	-1.465126414966667
O	2.5596890015476195	7.710806941333334	-1.488007704966667
O	-0.8266806854523808	8.738122881333334	-0.13758881496666686
O	-4.050787758452381	6.931949881333334	0.7414635440333331
O	-6.767153238452381	9.020074531333334	-1.1325513249666668
O	-13.09654388845238	4.538374621333333	-3.1038017249666665
O	-9.726013968452381	4.554600161333334	-1.5430653449666667
O	-6.6356793284523805	4.458675531333333	-3.7343697549666666
O	-2.919181618452381	4.472708041333334	-3.187080954966667
O	-1.4108806314523807	7.327053671333334	-5.168585774966667
O	2.3767201615476194	7.667352071333334	-5.662958534966666
O	3.5546207715476195	11.279020881333334	-6.400397704966666
O	-5.412978038452381	-0.09159549866666628	-5.953112834966667
O	-5.211425408452381	0.4552723453333337	-2.1961721949666666
O	-4.211916578452381	-2.6885293986666667	-0.33191161496666677
O	-5.29073798845238	-2.1722954986666663	3.1942506750333335
O	-3.102630048452381	-5.000781128666666	4.751029435033333
O	0.2081308915476192	-3.0889939286666666	4.076980575033334
O	3.223775081547619	-4.960532368666666	2.5703825650333334
O	4.61232184154762	-8.429249498666666	3.3519451750333333
O	7.679196201547619	-6.709353968666666	4.738580555033334
O	5.584317451547619	-5.121255858666666	7.596145755033334
O	3.675224411547619	-8.240765118666666	8.351829545033333
O	5.690808011547619	-7.569425408666666	13.122711805033333
O	8.14756484154762	-4.653428108666666	0.6185196940333332
O	6.79740830154762	-4.967045208666666	-3.0425119349666665
O	4.150067661547619	-7.592540188666666	-2.136143364966667
O	0.8817745915476192	-6.087339148666666	-0.7734947049666667
O	-1.8153683064523807	-7.636121768666666	1.3475794456333332
O	-5.546752588452381	-6.993559038666666	0.8839574580333331
O	-4.726562058452381	-11.696920518666666	-0.8740656849666668
O	-1.1671894224523809	-11.171756018666667	-1.9787918949666667
O	-0.5791674514523808	-8.765420418666666	-4.826360884966666
O	2.653597801547619	-7.883774128666666	-6.550789274966666
O	3.220155151547619	-4.078676268666666	-6.672416534966667
O	5.953596721547619	-1.5168703186666666	-7.273354094966667
