32

O	7.8709650858543405	17.51715548230608	-21.190627192446044
O	8.452327816879752	16.514144123597344	-20.405879304422125
O	6.572991424756843	17.23785735797709	-21.743550897748413
O	8.399575800755576	14.81798360730653	-23.274530195353712
O	15.509213631237127	10.702130904272682	-19.261523417646217
O	15.350858999745178	9.77511177740534	-18.237860361345145
O	14.76170266722569	10.557241069448827	-20.423950214116324
O	14.325671737944594	8.845066098358657	-18.386090456231734
O	13.579568644327889	9.83036071501065	-20.352250357709842
O	10.243208939573323	12.156275408058686	-23.908433326757375
O	8.59892511886637	15.13308503212404	-20.980646950877038
O	9.623278756112459	14.391874923494468	-20.852743501227053
O	8.284198082597044	12.444048197581985	-19.713936183441945
O	8.592178675320673	16.64423060612809	-18.953675964921878
O	7.4494013113320925	10.346401098166737	-23.311953963003567
O	8.552309720269697	9.502130331983846	-22.740575776808413
O	6.543509992308266	10.390636098514051	-22.08628561742227
O	9.844548571912595	10.235196565905255	-20.867835319053206
O	7.85400076327794	12.163742081318876	-20.840210586472097
O	11.416138273307023	7.66967046445835	-22.70911829815757
O	11.539219532937022	7.207775830141159	-21.458331914239352
O	10.73003240023078	8.794734696204515	-22.508863204911243
O	7.388242819107972	14.423713340609861	-21.124344218915105
O	9.588588458242246	12.71835405929888	-22.856022898384794
O	11.778680905890784	8.213973029315573	-18.965916272899644
O	13.254113527969128	9.234953415007581	-19.13037172014074
O	11.039728566762868	8.109561147406446	-20.573135294211422
O	8.367569586067788	13.304895920350896	-23.0443062503522
O	8.493222468427474	9.735945042240486	-21.233284761600594
O	7.495338531412454	13.157678746153485	-21.838255163628602
O	7.558588096873045	10.81550013132706	-21.106434545611837
O	10.7950507762852	9.250566913176876	-21.29456517510634
