36

O	6.753926703952056	15.464476583027036	-21.61624289350332
O	5.947813854675427	16.392207445230177	-20.812662685664677
O	7.447562028699348	14.817435234336918	-19.38056847211623
O	5.737178407411864	14.392100643856617	-22.065895019033817
O	8.809518745111582	14.237155706097376	-21.053966332093566
O	8.095076496691581	12.332677022473273	-18.804363064436025
O	6.450414598037682	13.649540386077904	-23.162065069894687
O	7.235191665353409	11.247834911095538	-20.622148287799664
O	7.73239298376403	8.189018980034389	-19.372535161762784
O	7.545092995035602	14.612524467304222	-20.63234868848735
O	9.460716691762645	9.771131421569564	-19.753201896764217
O	9.234426809201569	12.961151748352579	-20.595023303391955
O	8.191156001426418	12.121529357227795	-20.024201286756227
O	9.797339662776238	12.333916668529078	-21.752946467066092
O	9.356961909227516	12.0333976634375	-23.090566330226544
O	7.5141987908265815	10.508232453235168	-23.05126367515933
O	6.798089156080678	10.599291984895594	-21.798986027275944
O	6.307770795904152	9.190465590689374	-21.457752913423096
O	5.765193165255	9.540563999766015	-20.059751699020502
O	6.982664537519131	10.254054848007943	-19.516803786708287
O	8.141760807624474	9.312960459536104	-19.976387865616765
O	10.512334908676813	8.863953250404158	-20.05123419398582
O	11.329866266820268	8.294807354566627	-18.938843677699552
O	11.52594659073085	9.643305625971593	-20.839818654246578
O	12.3086221982349	9.023667371964663	-21.766871167608873
O	13.619197254927254	9.411032436743096	-21.837961342693006
O	14.14263735819998	10.495367736025443	-21.13816356044707
O	13.13728705892462	11.353057141470394	-20.689184437145844
O	12.099948928672461	10.660546774633396	-20.061086052137732
O	12.495336996340493	8.95442163617227	-18.495504313019353
O	13.23080224461443	8.411177959772214	-17.469409699511665
O	12.965659330141916	7.120985611250841	-17.087355515122947
O	6.688739128082252	17.615673985343285	-20.656040799997264
O	11.579071366910508	6.9197731478185425	-19.04318038135817
O	12.07696837507457	6.3998449554671435	-17.843813071248682
O	8.99722530456688	10.540770988410989	-23.11570606963511
