31

O	7.936829382186735	9.94893511680526	-24.258170711324937
O	7.785681867121706	11.315551202881359	-24.559785152779558
O	7.087372563283672	11.998493127904194	-23.58361456314399
O	7.5957080553924365	13.30103582075626	-23.081346586654906
O	6.57072747374605	14.375726854842002	-22.875483444397545
O	7.134969289280113	15.573569177515846	-22.2391822664161
O	7.2942128218566715	15.260224513061475	-20.884275135466517
O	6.078956907044518	15.666394866190583	-20.075754836490038
O	7.617301816589861	13.84340169753939	-20.71066530168451
O	8.052509268220934	13.015026600682136	-21.77544749401685
O	7.63763836377274	11.685649238616387	-21.3005140663612
O	8.46233886065462	11.678779320100034	-20.031058759254996
O	8.25758084619166	10.61241052103924	-19.4188233337947
O	9.864967746188771	11.986514569826237	-20.315246699157555
O	10.234341473625308	13.140650604759305	-21.16746098256162
O	11.057433121260157	12.568363639483554	-22.23234235655596
O	10.577566303397585	11.848049107528562	-23.42395238407724
O	12.20519900094207	13.362410449447074	-22.721127127044582
O	11.752834724377436	11.489544552457163	-21.370732356522463
O	12.817924868215394	10.664118951679644	-21.605189082084525
O	12.790505223914417	9.34981599971301	-21.22800936376409
O	11.57881269614392	8.713876127248167	-21.06763046329912
O	11.76728844549837	7.53358831945515	-20.11974103312892
O	12.237492371436428	8.284164851872783	-18.858690610664784
O	12.95562334004564	9.440050957286626	-18.97833420714396
O	13.698434618834597	9.867601118203908	-17.931868610928472
O	14.042879706090918	8.967046252469395	-16.9736506871748
O	13.232465730052258	7.880303703012931	-16.802328951748827
O	12.654243038277258	7.383670972169438	-17.936539478232408
O	10.66896385271232	9.613977736513775	-20.492252431694517
O	10.59103348836306	10.90398457878333	-20.937191674439443
