61

O	-0.5930624399559998	-4.31850683936	4.8884296666000004
O	0.6643335900439999	-4.95368772936	4.6979912066
O	1.816489770044	-7.250101019360001	4.5233801966
O	8.600004100044	0.8295731306399994	-0.6743110434
O	9.462025550044	-1.9849961483600005	2.1055416866
O	7.810827600044	0.3970803606399995	0.39254006659999996
O	9.282833460044	-0.18264936936000042	-1.2920004334000001
O	9.903728370044	-3.0689370493600006	1.3231810396
O	8.203286580044	-2.3240069403600003	2.6187327766
O	7.017555590044	-0.7036069603600005	0.020276484599999978
O	8.814295630044	-1.4592022411600005	-1.1551572234000003
O	9.089282300044001	-3.3084481693600005	0.2676503896
O	7.357772340044	-2.3988637533600006	1.5063300316000001
O	5.636301030044001	-4.546801819360001	2.7579502166
O	4.285849150044	-5.57911321936	4.0496974366
O	4.800389500044	-6.76598742936	3.3148883866
O	5.359302070044	-7.802132799360001	1.1975913556
O	5.110077720044	-7.3541552693600005	-0.2090907634
O	5.933279370044	-5.0077277993600005	-0.33942416340000003
O	1.499927220044	-4.178639259360001	3.8187976665999996
O	1.128011460044	-3.0490136493600004	3.4618512166
O	5.907160960044	-3.671193689360001	-0.8645697934
O	2.213936834044	-4.8904631193600006	2.8392527466
O	6.959562190044	-5.35014486936	0.2411009946
O	3.888288773044	-3.5116635593600005	0.5990433436
O	6.631332030044	-5.52154036936	3.1145521865999997
O	0.633584710044	-6.32903297936	4.1408828866
O	3.725430352044	-4.528166279360001	1.2829020266
O	7.407849660044	-1.5771319883600006	-1.0282670133999998
O	7.748981240044	-3.3189977893600004	0.5083452556
O	4.499429630044	-4.244430529360001	3.5227359666
O	4.330492000044	-6.98835018936	1.9306212066000001
O	4.809361650044	-5.917945699360001	-0.15704925339999998
O	7.0601631700439995	-2.9582640993600005	-0.7903674034
O	3.357293758044	-4.07273607936	2.6030940266
O	4.4341942200440005	-5.7396811993600005	1.2059527736
O	-0.4679042999559999	7.863123580639999	9.4955149266
O	6.8680003500439994	8.78492459064	-1.0967523434
O	7.764233170044	6.4001052306399995	6.5782836466
O	4.366534550044	5.165614650639999	5.4842529966
O	5.445594460044	4.09287460064	2.0999594166
O	3.215469543044	4.65848504064	-0.8925412434000001
O	3.195048157044	3.7897102706399997	-4.6126078834
O	4.325526910044	1.0727198906399995	-9.815278283400001
O	3.847832463044	-1.3028506463600005	-6.610065403399999
O	4.862714520044	-0.3234191993600004	-2.9969179034
O	3.053037395944	-0.9439600253600005	0.07807008059999998
O	4.368334070044	-0.13821005936000041	3.3122893965999998
O	3.6913550500439998	-1.0808723043600006	6.7236876166
O	-0.11478352995600005	0.08019687063999958	6.931127436600001
O	-2.424146839956	-1.1094496843600004	9.689222296599999
O	-8.476152909956	-0.2924717693600005	2.9909817166
O	-6.0551165899559996	0.9365868406399993	0.2613043676
O	-8.270153609956001	-0.47422368236000045	-2.6410310334
O	-8.359666009956001	-3.9177327793600005	-0.9801944534000001
O	-4.541152099956	-3.9147041593600003	-0.35538318339999997
O	-3.9743025899560003	-2.6184801093600005	-3.8699353434000003
O	-5.966638349956001	-5.52832694936	-5.3291371633999995
O	-4.329291919956	-8.054064479360001	-2.9498841534
O	-0.7905275699560002	-7.27123244936	-3.9693264734
O	-1.2338443199559999	-5.874343269360001	-7.5256390334
