57

O	-5.9882191096	0.06939818050000035	8.110110709795
O	-5.0175891296	5.8744346705	9.724615739795
O	-3.0257626786	1.0971565005000004	8.012538059795
O	-2.4999488656	3.0756347445000003	0.6868785197950005
O	-6.4407142496	4.3515505205	8.841215569795
O	-5.6335124996	4.761673350500001	1.0315517797950005
O	-4.9020675596	2.2813179045000003	-1.759757020204999
O	-4.0943818226	3.3281831885	-1.1798469602049995
O	-3.5774707006	1.7861793905000003	3.4441700264950006
O	-2.8497922056	2.7749543295000003	11.547336609795
O	-3.5414654046	3.2265031065	7.546720749795001
O	-1.7324828496	3.0954528505	10.783369199795
O	-5.5176390196	2.9681685702000005	2.2257746097950006
O	-7.3094955596	6.1860353805	10.079878189795
O	-5.0499305296	1.6276967105000002	5.107959649795001
O	-4.1203486356	2.9442117365900002	11.006704509795
O	-1.9526726696	3.3309238905000003	9.450857759795
O	-5.9981521496	6.624980900500001	10.219362759795
O	-7.4945065196	5.0822087105	9.291465509795
O	-8.9905862296	4.3356152005	5.6493169797950005
O	-9.0427393796	3.4339993225	4.453084825795001
O	-8.0249406796	5.4546366305000005	5.374487779795
O	-7.807127189599999	3.3802757765000004	3.6196319079950006
O	-6.619538389600001	4.9579789205	5.1763270897950004
O	-6.8278147496	1.8698348105000002	6.501506319795
O	-6.4780430996	1.3169064505000003	5.087310459795001
O	-4.3058938766	3.5018318215	9.743393309795
O	-3.2015724876	3.6419879325	8.902648059795002
O	-5.3037447796	4.5634541305	9.501733519795
O	-5.725731569600001	1.2288277105000003	7.255030649795001
O	-6.5366390895999995	3.7227915215000005	4.327785057795
O	-4.5221311396	1.1345252505000003	6.294827399795
O	-3.9086019136	3.1943491625000004	0.21458017979500088
O	-5.2825922196	3.5181779575000003	3.5692842683950006
O	-3.4808831156	1.8685420205000003	7.0895152097950005
O	-4.9050023296	3.7150249995	1.1485537497950005
O	-4.4149658096	2.4294273235	4.154766422795
O	5.728431430400001	10.493276320500001	-3.519564060204999
O	4.6725171804	7.7288844305	2.5906597357950005
O	4.227041230399999	4.8357453405	5.148277659795001
O	5.7985402704	1.6485874005000003	3.6225694868950007
O	2.4014678504	-5.562860699499999	6.1720674497950005
O	2.2474454804	-1.7565496394999993	6.0827134397950005
O	0.26579096039999994	0.7665659205000002	4.001998463795001
O	0.1800934004000001	4.574232400500001	3.8248892347950005
O	-1.7331705996	7.3263573705	1.9895569697950006
O	-0.7752695495999999	6.2132577605	-1.5625968802049996
O	-2.7993876296	7.6474432305	-4.473168620204999
O	-0.9149507496	0.13513026050000043	-7.868163060205
O	1.4708913104000003	-1.1607072394999998	-5.088226140204999
O	-2.5721379386	-4.6623495295	-6.398856560205
O	-2.7359362606	-2.9928886094999996	-3.055171750204999
O	-0.3492107995999998	-5.3724584994999995	-1.4238880202049993
O	-2.3630677796	-8.380394439499998	-2.6742876502049997
O	-5.6729734296	-6.7413760295000005	-1.769042480204999
O	-4.7445454196	-5.913006309499999	1.8545411197950006
O	-2.3315689576	-8.8268894395	2.5456916617950007
