46

O	2.189386838111111	0.8686589664074076	-3.7473637977074072
O	3.445951547111111	1.5130019704074076	-4.329469497707407
O	4.087543607111111	2.2644798754074076	-3.1494339077074076
O	5.339276387111111	2.8323159854074076	-3.5511390677074073
O	6.079980557111111	3.0437410654074073	-2.3904936477074075
O	5.365108037111111	3.6490910854074077	-1.2256567877074074
O	4.161597657111111	3.9408965554074076	-1.5420383077074074
O	6.069182397111111	4.7177995454074075	-0.5751996397074073
O	6.307918447111111	5.958696925407407	-1.3099454277074074
O	5.993806157111111	6.980894765407408	-0.2557641587074074
O	6.140152857111111	6.335579155407407	1.0747988722925925
O	6.695106077111111	6.882692195407408	2.2208356522925925
O	6.915412857111111	6.058711805407407	3.3063740922925926
O	6.840233327111111	4.709340635407408	3.0863312922925927
O	6.720967647111111	4.1965553554074075	1.7948457822925925
O	6.165569367111111	4.975800915407408	0.8148681202925927
O	4.994948827111111	3.8892447354074076	-4.4349550277074075
O	4.318082167111111	3.1636446354074077	-5.604305747707407
O	3.0164025671111108	2.5183494734074077	-5.2439208477074075
O	-9.540878222888889	6.0914113354074075	-3.5457113877074073
O	-7.464183962888889	0.7793223234074076	-4.5059175677074075
O	-10.080964622888889	-1.4921492845925926	-2.9856604677074072
O	-4.215258202888889	7.071166815407407	8.491225242292593
O	-4.466277092888889	7.610444045407407	0.6281513812925926
O	-1.7664097628888893	6.897537525407408	3.2519161722925927
O	-2.070341372888889	3.4632181654074077	4.8722812122925925
O	0.0994724471111108	1.6259433314074077	7.369431472292592
O	4.604028157111111	-0.5778587045925923	10.687629732292592
O	5.341233717111111	-0.06250931459259235	6.959401572292593
O	3.543721887111111	2.7849446154074076	5.259905632292592
O	2.2596526071111107	3.0466225654074073	1.8056339122925926
O	0.9735341131111108	6.073467365407408	-0.15139865070740735
O	0.22874465611111083	7.253027335407408	-3.7199553777074073
O	-1.651670622888889	4.114563885407408	-4.784272557707407
O	-2.001304792888889	3.649677375407408	-8.578792007707408
O	-2.334460882888889	-1.9162271045925925	-7.901619797707408
O	-2.758872862888889	-4.826150334592592	-5.576921577707408
O	-2.492095712888889	-4.304724574592592	-1.7625522177074073
O	-1.0207469428888891	-7.767578624592593	-0.9749336467074073
O	1.4583706301111108	-7.585543664592592	-3.8594422377074076
O	2.5676054371111108	-4.169059974592592	-2.7463381177074075
O	2.753560407111111	-5.136801214592593	0.8569048482925927
O	5.020223367111111	-8.091894264592593	-0.0012061419074073532
O	7.114271747111111	-6.039642454592592	-2.4562030977074074
O	8.047516087111111	-3.2958945345925925	0.030718341592592645
O	7.851529797111111	-5.195312634592593	3.3377253322925924
