57

O	4.72953065	-7.6744804818159995	-1.6028282103840004
O	2.55662716	-0.656078688916	-8.253015990384
O	2.163556539	-2.062055341816	-8.316182910384
O	3.91703392	-0.41937077181599997	-8.075561730383999
O	1.6057959480000001	0.21973625718400003	-7.727627730384
O	1.6052047960000002	-2.569559381816	-7.0645350203840005
O	3.17925362	-3.036989001816	-8.777868910384
O	4.89146809	-1.477590379816	-7.757548850384
O	4.19262696	0.8352967981839999	-7.505143210384
O	1.9415038830000002	1.569049698184	-7.777621160384
O	0.6649908570000002	-3.627699761816	-7.344485930384001
O	4.40416789	-2.8709487818159998	-7.954419060384001
O	3.28580685	1.8819820481840002	-7.616902340384001
O	0.06561730000000021	-4.291208181816	-6.198875040384
O	-0.11062461999999984	-3.380002751816	-8.300257710384
O	0.9100258410000002	-5.171355421816	-5.443708240384
O	-1.1266006499999999	-5.1393815218159995	-6.482419290384
O	1.7256848810000003	-4.682088441816	-4.4259053103840005
O	0.6694478560000001	-6.552852771816	-5.744774180384001
O	-0.44145221999999995	-6.474485201816	-6.750379150384001
O	3.1601677300000004	-4.5868516518160005	-4.674115160384
O	1.249092359	-3.893449091816	-3.5851661913840003
O	3.7314111700000003	-4.782418371816	-3.3497374503840005
O	3.8761804100000004	-5.6333315018159995	-5.421622620384
O	3.23987522	-5.876964671816	-2.6061662543840005
O	3.23612934	-5.750251391816	-6.736293030384001
O	3.91205777	-6.999428751816	-4.7992851703840005
O	5.33079719	-5.177680061816	-5.376483530384
O	3.58743128	-5.701197501816	-1.1019537603840004
O	2.1127174650000002	-6.266552551816	-2.9388861743840002
O	3.78326346	-7.046593241816	-0.6585681303840003
O	2.41535409	-4.916693401816	-0.6959165903840003
O	8.30710762	4.548755818184	5.868147469615999
O	-0.029009649999999887	9.064078468183999	-3.138631880784
O	3.08991893	11.147815528184	-2.2909592093840003
O	5.26887564	8.869689768184	-4.463510240384
O	7.53467158	6.684126488184	-2.3732721073840004
O	5.51808253	4.183574098184	-0.3675805503840004
O	2.69692185	3.764565818184	-2.9771878453840004
O	-0.7212887499999998	3.900144628184	-1.2220618403840002
O	-4.35728827	3.669646668184	-2.3505608893840004
O	-9.33901049	2.058969008184	-5.2794391303840005
O	-6.66154735	-0.711588444416	-4.849661720384001
O	-3.05644914	0.3748875781840001	-4.708197800384
O	-0.18581895999999976	-1.1728463858159999	-2.783503169384
O	3.55226895	-0.500652499816	-2.979860669384
O	6.95817456	-1.761814381816	-1.5784225303840003
O	5.81304236	-2.287984251816	2.034193419616
O	8.03203525	-4.407528771816	4.359118609616
O	0.2511775500000002	-5.328165511816	8.364152889616001
O	-1.9894615999999998	-2.824659491816	6.429584239615999
O	-5.26919382	-4.683645921816	7.209161989615999
O	-3.7221448500000003	-8.085019931816001	6.270385549615999
O	-2.26334753	-6.723234781816	2.899227049616
O	-5.65317794	-4.8955493318159995	2.3292321696159997
O	-5.15268794	-8.237471931816	-2.2895606313840005
O	-8.62185053	-6.646092231816	-2.1107931713840005
