32

O	6.551277875426789	17.235154763380578	-20.06808838529332
O	6.091106120645541	17.723883457814384	-22.487445320627696
O	10.033415809102994	12.9336941993976	-22.436939065995524
O	6.209084043417726	16.687852489515564	-21.504829838354564
O	7.16473223578029	14.210483002821693	-21.610168361960003
O	7.9441858295790455	8.716010806440966	-20.7902309256281
O	6.9665775374447065	15.489572617241432	-21.87135162705606
O	8.7715192432497	11.412420278190734	-21.435413025165644
O	11.878827365274457	6.506441530329656	-18.705837429119
O	7.81823972710707	13.54292360186747	-22.60373590620157
O	9.883054017025767	8.889937196340256	-19.695758985154086
O	10.047711563470017	5.642487628509835	-19.339887949110604
O	8.869381384232947	12.58698066838183	-22.1541571487516
O	11.14439245965772	10.834242221805523	-24.195136435590644
O	7.896452140205118	15.696630976096497	-22.831493560215456
O	7.954322352474723	10.439895184685675	-22.206521900878773
O	6.653528792816299	11.13800043044156	-22.00683001840472
O	6.812046293955266	11.142555986087348	-20.46734035680943
O	8.299911542231257	10.944224823377866	-20.12749309844876
O	8.685586878735617	9.490017771868374	-20.13962839067183
O	10.68766579941208	7.9061415322637885	-20.343039551400842
O	11.496191197736003	8.34154853789337	-21.44992661589688
O	11.276421069541573	9.515400696440484	-22.30102390223114
O	10.597195296050554	9.865846719969031	-23.57137255989327
O	12.373595140347257	11.102645100045502	-23.55857205936851
O	12.954223611664387	12.429516610951648	-23.639136569289715
O	13.744797114638887	12.82675715287903	-22.668629557907103
O	13.877289524643619	11.963160624781349	-21.471249347366086
O	12.715947612338445	11.358507748984689	-21.124823550832858
O	12.13874919602951	10.554991342639706	-22.18201625142759
O	10.947050841474264	6.699424671036786	-19.56263377230098
O	7.919420287712578	14.544892020189756	-23.570716244442252
