43

O	7.446428976452454	7.713590530677866	-24.989493962035603
O	8.66647463974565	8.455000325979766	-24.456203947741564
O	8.330546708470738	9.795407897308394	-24.406609187751407
O	8.37666029299706	10.315558211825003	-23.092615142869015
O	7.842843830484464	11.670972987000205	-23.005198893997363
O	6.672158185075299	11.682726786412642	-22.193902933172048
O	6.57945123149502	12.858326062186137	-21.431075072795664
O	7.624543150615151	12.44710808386364	-20.4780062502602
O	7.7685649712529	11.224177606760751	-19.90462369330509
O	6.770203398451381	10.16791150282657	-20.275836316208256
O	6.540868078125337	10.403758509522396	-21.654979219513855
O	7.441006597349622	9.513225363747843	-22.291110549567545
O	9.084671707745045	10.6854209500632	-20.050973769116574
O	9.972520039590375	11.325645951702164	-20.567772725752302
O	9.277578207544948	9.317889332326569	-19.990114113696798
O	10.342402655134634	8.877542560665358	-20.839436638852668
O	10.057047685590849	7.59934242938035	-21.486648332753703
O	9.854137753194879	6.571489353713394	-20.383406708612096
O	10.708846723451698	6.924600460138079	-19.342460259258836
O	11.774337694506006	7.78730890354217	-19.326286717503613
O	13.071407337881851	7.501401908563398	-19.005458393334237
O	13.889449314162341	8.60483470875251	-18.769878529991573
O	13.515513503780568	9.885265213326825	-19.162787032775622
O	12.194841436316636	10.076219524578338	-19.562370596998196
O	11.533995419076023	8.984162668056898	-20.01237319391405
O	8.654025653192907	13.231124555224019	-20.027469925836574
O	9.379374095244113	13.258118394213236	-19.04108304994664
O	8.328663322916185	14.347478197043595	-20.929745130781736
O	8.023225706344615	15.267424422637566	-19.914240117723242
O	8.781572453977741	16.439203275282235	-19.97602496009508
O	9.50726751260505	16.557530897527453	-20.972012448503758
O	8.102634450699638	17.584254369629445	-19.2789930094657
O	7.864533267145437	17.05404961810534	-17.925871266860828
O	7.1160746684202145	18.07561537324158	-20.154518744319006
O	6.546473541770139	17.153334354645047	-21.144239659533895
O	9.547471637822936	14.505278702186514	-21.607433684697654
O	10.727969149003771	14.17150893275651	-20.839119019518417
O	11.96454620179448	13.592715492735648	-21.29773860377425
O	11.976489229681189	12.713444331550711	-22.49375832020795
O	10.662261512266362	12.810897769706283	-23.145819863398465
O	9.841020360924702	14.009828039135172	-22.939923377821557
O	12.852108291257267	13.373517928750209	-23.348188625040514
O	12.420037681103942	11.44040917413314	-22.376822801778548
