48

O	-7.565324992038461	0.7826041881923069	2.7898912536538467
O	0.9602576579615385	-2.373668475807693	4.428178420653847
O	0.9600876179615385	-2.5744283958076934	5.910959200653847
O	-0.19438090203846148	-3.2242465858076934	6.579041320653847
O	-1.3247879420384614	-2.4458398558076935	6.951383460653847
O	-2.2393063230384613	-2.525460245807693	5.855593990653847
O	-2.5187186508384616	-1.181329365807693	5.246008510653847
O	-1.4597626320384616	-0.44383930780769315	5.3159307506538465
O	-3.5897754520384613	-0.34952875480769313	5.712826240653847
O	-3.4876456920384618	-0.023113396707693135	7.143267910653847
O	-4.623237452038461	-0.8301754968076931	7.628628950653847
O	-5.004366102038461	-0.3966573088076931	8.991302700653847
O	-4.518851632038461	-2.3146364058076934	7.588872880653847
O	-5.692072042038461	-0.44773319780769316	6.627278070653847
O	-6.794000432038462	0.35025392719230686	6.577030330653846
O	-7.541160832038461	0.4829743701923069	5.437583690653847
O	-6.961729682038461	0.01880016049230687	4.2592461896538465
O	-5.774819532038462	-0.7045069478076931	4.340786612653847
O	-4.969535742038461	-0.5534191288076931	5.434038330653847
O	-0.8667181020384616	-1.181936455807693	7.409395310653847
O	0.6177090479615384	-1.3528669458076932	7.776610770653847
O	1.3837289079615385	-1.3230221858076932	6.476437560653847
O	5.7968987679615385	10.720983704192307	0.6507227806538469
O	7.398205217961539	5.421785104192307	-1.0085101093461528
O	-6.763155282038461	9.245894044192307	-3.0737801093461528
O	-0.5948958320384614	8.770674244192307	1.8245142506538468
O	-3.7779921620384616	6.720481954192307	1.1936010406538466
O	-3.6969700420384615	4.736713084192307	-2.0662709193461533
O	-6.119459232038461	2.2712972341923066	-3.633298929346153
O	-10.149389722038462	-2.009882515807693	-4.804195749346154
O	-7.826623492038461	-2.6209414158076934	-1.7821251793461528
O	-6.604093522038461	0.39841501019230685	0.18231469065384687
O	-3.2349076340384615	1.0096443041923069	1.7634419806538468
O	-2.2348667050384616	3.7630818241923065	4.162376642653847
O	0.4862634579615386	4.594910464192307	6.629862110653846
O	3.4589693679615388	3.6719461441923067	4.329565251653847
O	6.75392075796154	3.0603522641923067	6.162740340653847
O	8.503737037961539	-0.43509341080769315	2.0575069206538465
O	7.902266937961539	-2.011172805807693	-1.3393159693461536
O	4.438086477961539	-1.372487985807693	-2.9257874793461536
O	4.295963467961538	-4.778619345807693	-4.716939519346153
O	5.2333177379615385	-6.646673075807693	-1.5156667893461533
O	2.5843925979615388	-4.7970260458076925	0.4851026406538468
O	0.01953112796153844	-5.2230884858076925	-2.228222429346153
O	0.6174253179615383	-8.999900355807693	-2.3925438193461535
O	0.6917922979615385	-9.317583375807693	1.3809692606538468
O	-2.7201927440384615	-7.6362140658076925	2.012892700653847
O	-4.458224202038462	-8.537496495807694	-1.348953609346153
