13

O	6.0984068294394636	15.548153603921998	-21.65759286439995
O	6.796887272026764	14.35164969144352	-22.294266276240535
O	7.694057819709993	14.90757048349015	-23.36449461041932
O	7.627921054010955	13.667951528235978	-21.251603628920197
O	8.00603763622881	14.509180003889265	-20.14755251563811
O	9.24721184623591	15.162739510072013	-20.207180581272485
O	10.194674720993941	14.877719682669566	-20.979883668801495
O	9.165048305403698	16.64797829314993	-19.933098037950835
O	7.979488652272385	16.968103044374853	-19.039065197732423
O	8.964704427794864	17.128871774733803	-21.30573530191588
O	8.86005213456556	13.046009095804102	-21.770909159199274
O	9.424887379736314	12.454936014044847	-20.832070360668258
O	9.404400517074878	13.399432295202796	-23.010952374565647
