36

O	7.7625398039947004	18.093364273751998	-20.2546761759065
O	8.032101498462424	16.983942323763785	-21.101603431394338
O	7.195851453106935	15.719151501636388	-23.18305890877532
O	13.907985582886617	8.49929916134068	-16.769465308457335
O	13.99386384510509	9.41832267009812	-20.7116072543376
O	13.670741323386004	9.73409069458793	-17.375291905692606
O	13.384629013051512	7.442607029819456	-17.463648387258885
O	13.19946688075007	8.406456909803465	-21.283602521973403
O	13.263696135406333	10.612131584184871	-20.777883938811133
O	12.314464693714749	9.87425857419261	-17.722048166310614
O	12.359870430107033	7.6827908470566175	-18.33544112488868
O	12.044784330707039	8.2110196173407	-20.60290772694962
O	12.166758873872311	10.42284487269865	-19.930041427083978
O	10.369249699654922	12.194049205671245	-21.59600975616104
O	9.521052077722182	13.893486329513673	-22.57093141629433
O	8.728747970621551	12.84852158839601	-23.273547523279873
O	7.391551197311442	10.832730558641389	-23.14156828261038
O	6.8446903799974725	10.09475895773085	-21.959243288935465
O	8.763711333661579	9.76431984103449	-20.407296706979785
O	8.604482598314101	15.89656233680614	-20.352015033258247
O	8.920368455654323	16.073621583185595	-19.164306201988637
O	9.338941623202833	9.610960379024853	-19.100248689250932
O	8.115246328620326	14.60976191379396	-20.636275003354864
O	9.450035329212879	9.396092099294258	-21.356445293276394
O	8.92122135852095	12.072911157207635	-19.012121900484647
O	10.529057463440441	11.600574094577667	-22.895861927744914
O	6.8756695265733	16.41908984880018	-21.840857451641888
O	8.510134614142745	12.515981184379143	-20.090157142483385
O	11.493395655731375	8.743925244341286	-17.973068287237044
O	11.34119044433045	9.320280882804806	-20.24381535383026
O	10.23964423469868	13.569878120837583	-21.352905991889507
O	7.635298685118038	12.184437185321702	-22.532059122297422
O	7.594809933591303	10.550497011166598	-20.78218768937965
O	10.524632281333155	8.954184481638443	-19.022971428178046
O	9.211551647637377	13.75911222852746	-20.310355889019924
O	8.137497476829642	11.78823014578737	-21.2336412041239
