19

O	7.256589542716656	17.3679628008227	-18.36932765063738
O	7.074884842495987	16.951329369038515	-19.82753881714172
O	7.576886349480375	15.497676750967324	-19.888628585393512
O	7.361630289208356	14.958425959204265	-21.197640903141583
O	7.352494242744417	13.571448521319377	-21.068601597778255
O	8.413520046167786	12.958870059389309	-20.212267463559023
O	9.218399939361136	13.856123443555713	-19.78707379542394
O	9.068167221536784	11.817847592270212	-20.787122039586837
O	9.882162468887707	11.998987849026197	-21.987652142048535
O	11.076461554455745	11.151878140867105	-21.6546237058841
O	10.66833673916441	10.156740093537476	-20.629254516530892
O	11.035372331981502	8.8223282877927	-20.55620616039908
O	10.399142976839652	8.01153024851598	-19.63767950738515
O	9.257654542614002	8.502535577760586	-19.062534941930082
O	8.676303760288762	9.686895409017765	-19.514675325378406
O	9.460809396252218	10.62176106762351	-20.136466462117173
O	8.290356479198941	15.637192144061654	-22.03042817046893
O	7.829832597210621	17.09801326678054	-21.95332766177528
O	7.998025286889929	17.71477209935467	-20.59982381439064
