16

O	9.842705065923225	23.13247283017663	49.19525602323423
O	8.87279998464511	23.264104804239167	50.186747740305954
O	8.830184628694521	22.439588317853023	51.34865087223099
O	9.847418440461766	21.534002145194876	51.356583424832706
O	9.376147769036127	18.576929523411046	50.54507423526206
O	8.119518753190672	19.16680498712534	50.86944627921165
O	7.695242219982257	20.161563413632525	49.94151351828335
O	8.277909404419397	19.966728176690104	48.72113782255728
O	10.332584266551056	21.143897883599998	48.022742827237536
O	11.261907714577514	20.11361292883307	50.05304018898808
O	10.690799666380748	21.389895640505507	50.19521121231588
O	9.670909048614591	20.00984203587369	48.53312140131628
O	10.593045643773712	22.04875457474951	48.99553868470858
O	10.156047375903194	19.425207667364887	49.6430575129235
O	7.552242238560202	22.283871821562396	51.8755933931267
O	7.702575973898632	19.33008706391249	52.20037722706725
