29

O	-19.720126205252672	57.85448849795259	14.758514930885136
O	-20.74336150711495	56.71498540340202	14.071428591635094
O	-19.805357192730458	59.201990313497674	14.131266145254306
O	-18.12818696760679	57.32547281331787	14.67653333780331
O	-20.00010926927384	57.89462968120229	16.56677230835086
O	-20.428679213277285	55.51766531805947	16.514838413327148
O	-19.577384248203273	56.513287595739705	16.991062735361766
O	-18.226317641324655	56.2195646031004	16.829502864675337
O	-17.924776881797886	54.95822691585206	17.337885396409536
O	-18.62936251146027	52.6326316194996	17.502753300812333
O	-19.614719254912938	51.9700957683828	18.22509396268868
O	-20.891041001068942	52.34918742325535	17.92252108754106
O	-21.12803299783598	53.308284804446984	16.94161250388447
O	-20.111255935831622	54.19294036731136	16.598982304188542
O	-18.802046918145116	53.92476966317003	16.991487239246254
O	-19.40694439050175	51.49540228325672	19.628591396509165
O	-20.364021453008842	51.14923259154838	20.350207650853022
O	-18.307986865200235	51.92444939898746	20.432861735308585
O	-18.308003454267194	52.93308303843451	21.489866176123925
O	-19.424140150154994	53.94199416781822	21.34385292049009
O	-20.73415384987932	53.419365974952186	21.635479482484826
O	-19.426738594202863	54.418973257355105	20.14365685915859
O	-17.04855434153604	53.74469398796557	21.09992160445102
O	-17.34298196670339	55.146231727714074	20.67020036964289
O	-16.08040006115913	55.75582312646255	20.214176258360958
O	-14.882673497716699	55.436997322956906	20.81901853912086
O	-16.089902944008823	56.733179805572675	19.424771682916344
O	-19.19533019069413	58.77314775856863	17.211244312170955
O	-21.332647693553675	57.9671768812261	16.76913048604246
