64

O	-2.893512722085714	-2.8897209639142853	0.4006119809142855
O	-2.5350159720857146	-2.4661302749142853	-1.1835649130857144
O	-4.018983772085715	-2.1171363522142856	0.9946611679142855
O	-1.5376353150857143	-2.6932924299142855	1.3721372769142854
O	-3.149763912085714	-4.6996846509142856	0.4909632579142855
O	-1.4605423010857144	-4.985561170914286	-1.2123082630857145
O	-1.7943232020857143	-5.238107540914285	0.1171905460142855
O	-0.7669104704757144	-4.961836810914285	1.0148838829142854
O	0.4177408779142857	-5.5823020609142855	0.6250423179142856
O	1.8978650179142855	-6.106918360914285	-1.2366843230857145
O	1.8420520179142854	-7.011026750914285	-2.290786133085714
O	0.8041680179142856	-6.810782190914285	-3.155052843085714
O	-0.08091654508571433	-5.753750860914286	-2.9613398430857143
O	-0.20067368308571432	-5.193568100914286	-1.6941776530857144
O	0.7628802379142856	-5.465312840914285	-0.7258169040857145
O	2.3013832279142856	-8.429264000914285	-2.1645827730857143
O	2.0043367079142858	-9.291041300914285	-3.016441463085714
O	2.5613592579142854	-9.046145450914285	-0.9034287030857144
O	1.7040756479142858	-9.966014160914286	-0.15944847808571452
O	0.2407701379142857	-9.825575130914286	-0.5115798810857145
O	-0.1024535670857144	-10.324618030914285	-1.8182840730857146
O	-0.10845328008571442	-8.584368330914286	-0.43785693108571455
O	1.7859999079142854	-9.340630520914285	1.2544697969142855
O	0.4886246079142855	-8.779906430914286	1.7423855969142854
O	0.7391262579142857	-8.113539580914285	3.0334614569142855
O	1.6721414179142857	-8.613425950914285	3.9175594869142856
O	-0.03553217408571441	-7.217444250914285	3.4522614569142855
O	-3.4208350420857143	-5.1376249809142855	1.7437745969142855
O	-3.9877060620857145	-5.040957020914286	-0.5106637700857145
O	14.008291377914286	0.7861994390857148	-2.7473374830857145
O	9.349844677914286	-1.2802903419142855	2.7755111169142856
O	6.082909107914286	-2.7499478879142853	3.944480626914286
O	5.581478557914286	-4.714584660914285	0.7735992229142855
O	8.007847127914285	-6.312537130914285	-1.6125479730857146
O	6.145694617914286	-5.507333170914285	-4.798877433085715
O	5.240840757914286	-1.9376935909142854	-3.8193263230857144
O	8.182878217914286	0.4023782290857145	-4.167089623085714
O	8.605598687914286	4.020641789085715	-5.181907733085715
O	8.638226747914286	4.523794349085714	0.6123960359142855
O	2.7651229379142857	3.4121041490857142	2.580976286914286
O	1.3679699479142857	3.123378979085715	6.096006216914286
O	4.331167967914286	3.776905179085715	8.418569416914286
O	-7.540596732085714	5.912678009085715	4.221243406914286
O	-6.881208592085715	2.638314909085715	6.041359566914285
O	-2.5096920920857144	-7.656648970914285	11.275942806914285
O	-0.5195706110857143	-4.414203270914285	11.381611306914285
O	-1.7763869150857143	-2.7524553249142856	8.211311436914286
O	-0.19519890308571441	0.4512961590857145	9.597343646914286
O	-8.399124372085714	-2.6777836599142857	1.7245511369142854
O	-9.209629052085713	-3.6007974309142856	-1.8807581630857146
O	-12.672601422085714	-2.3044764919142855	-1.1704258130857146
O	-3.427510722085714	3.732189439085715	3.1624892869142855
O	-1.6533511040857145	0.4869773590857145	3.7936200869142858
O	0.5214422879142857	-0.060514810914285455	0.6221625269142855
O	-0.06503560208571435	3.553922289085715	-0.4938127400857145
O	-1.5091914810857143	2.6433427290857145	-3.8924851930857147
O	-5.079866822085714	1.3015250090857147	-3.8658438530857144
O	-7.155162582085714	3.5297420490857143	-1.7087178230857145
O	3.2236181779142856	2.034533959085715	-9.388338783085715
O	-0.046584915085714385	0.1630416690857146	-8.821327763085714
O	-2.4197638620857145	3.0952418590857147	-8.327943883085714
O	-5.943875882085715	1.6523102790857145	-8.010038623085714
O	-5.825973762085715	-2.026094516914285	-7.071857523085715
O	-9.222605772085714	-3.2451565709142853	-8.274537403085715
