9

O	0.3061736524105072	0.04770573973655701	-0.024462228640913963
O	-0.4379889667034149	0.3177582323551178	1.1281391382217407
O	-1.79678213596344	0.08542569726705551	1.1784920692443848
O	-2.4728617668151855	-0.42404305934906006	0.08821031451225281
O	-1.7621325254440308	-0.6992019414901733	-1.0614231824874878
O	-0.40342798829078674	-0.4598638117313385	-1.0918891429901123
O	1.739051103591919	0.29399263858795166	-0.0739879235625267
O	2.467144012451172	0.8150616884231567	1.021795392036438
O	2.3608248233795166	0.023164819926023483	-1.1648744344711304
