21

O	5.96	69.581	65.309
O	1.886	69.43	66.469
O	6.378	70.635	68.845
O	6.67	70.277	67.434
O	5.569	69.95	66.666
O	4.975	69.198	64.47
O	5.519	68.784	62.997
O	4.527	67.88	62.246
O	4.282	66.405	62.996
O	3.305	66.089	63.849
O	2.303	67.18	64.15
O	4.394	63.619	64.131
O	2.621	68.602	63.709
O	3.171	68.555	62.217
O	3.623	69.11	64.752
O	3.228	69.512	66.146
O	4.248	69.912	67.043
O	3.913	70.303	68.461
O	4.934	70.63	69.274
O	3.279	64.636	64.466
O	7.56	70.996	69.959
