21

O	4.3279783332754045	70.53792699254714	65.03302035596568
O	1.8557516588957017	67.50445959271234	66.21537048725116
O	4.825660248517004	70.64819062063697	68.5315947587641
O	4.827475112659424	71.08182075493004	67.26451694917347
O	3.9921583401199188	70.42706954733976	66.34952079317911
O	4.445722784514759	69.28219839945316	64.46317291066076
O	5.284431746828109	69.39611233299827	63.214831350278246
O	5.163743279030073	67.89475793184495	62.96796672535192
O	5.369961638127034	67.02895791526811	64.11719037150812
O	4.634815554170198	66.14907771235748	64.72431695033355
O	3.2371415152792546	66.1553329472234	64.30918645871954
O	3.5628161706298087	64.95621851355445	66.58113775967482
O	3.00260100217801	67.50025996115781	63.74346027713632
O	3.7434318759372913	67.96856017480867	62.60864205044546
O	3.408834996002647	68.47671488826357	64.68874950337111
O	3.0930368159605273	68.18913314155523	65.97520358272305
O	3.255303994634855	69.31021971933323	66.77017809465427
O	3.122660246713581	68.93866655983588	68.09647797413403
O	3.7403963103068576	69.84960688402269	68.89167786012212
O	4.7921957572849525	65.7748770679043	66.18513683729088
O	6.122823688678673	69.86712113405477	69.48598507558694
