45

O	-1.0927276611328125	-0.4584469497203827	-0.05501957982778549
O	0.028584476560354233	0.6936861276626587	0.2632191479206085
O	1.5777260065078735	0.6893360018730164	-0.2277410626411438
O	2.080035924911499	-0.3113366961479187	-1.261061429977417
O	0.9448298215866089	-0.2913142442703247	-2.482689142227173
O	-0.038020145148038864	-1.553443431854248	-2.0428013801574707
O	-1.4013477563858032	-0.7271656394004822	-1.522128701210022
O	-2.262036085128784	-0.4036836624145508	0.7189249992370605
O	-3.296627998352051	0.4451160430908203	0.12513750791549683
O	-3.364654541015625	1.7947587966918945	0.3802797794342041
O	-4.329405307769775	2.6227972507476807	-0.16351576149463654
O	-5.259247303009033	2.043379306793213	-1.0007165670394897
O	-5.2300028800964355	0.7004696726799011	-1.2837531566619873
O	-4.243142127990723	-0.09968162328004837	-0.7168466448783875
O	-0.005167987663298845	0.7797511219978333	1.8151830434799194
O	3.969132900238037	1.1557430028915405	-1.1259756088256836
O	4.8103766441345215	0.11833292990922928	-0.6758012771606445
O	5.758141994476318	0.47747403383255005	0.24524497985839844
O	6.611713886260986	-0.4485771059989929	0.7345110774040222
O	6.55233907699585	-1.7733768224716187	0.3221890926361084
O	5.577722072601318	-2.112738847732544	-0.6167968511581421
O	4.703709602355957	-1.1772453784942627	-1.1212459802627563
O	2.4309322834014893	0.2390260100364685	0.8949463367462158
O	2.8297126293182373	1.376369595527649	1.745502233505249
O	3.6235179901123047	1.1092833280563354	2.8267714977264404
O	4.021481513977051	2.1351561546325684	3.6492092609405518
O	3.6186320781707764	3.421828269958496	3.3787412643432617
O	2.811279535293579	3.662627696990967	2.27156138420105
O	2.4146876335144043	2.6311590671539307	1.4497535228729248
O	0.17522773146629333	0.9100137948989868	-2.200430154800415
O	0.5267984867095947	-2.041973114013672	-0.7840906977653503
O	-2.23128342628479	-2.08575701713562	-1.2720738649368286
O	-1.4210083484649658	-3.012561559677124	-0.640716016292572
O	-1.9270538091659546	-4.24847936630249	-0.32987135648727417
O	-1.171093225479126	-5.2368998527526855	0.3072431683540344
O	-1.6990642547607422	-6.475198268890381	0.6116740107536316
O	-2.991624355316162	-6.783919811248779	0.2989698648452759
O	-3.7582294940948486	-5.84170389175415	-0.32375383377075195
O	-3.231891393661499	-4.601315021514893	-0.6295444965362549
O	-0.568090558052063	2.0882294178009033	-0.03400428965687752
O	3.004807233810425	0.7557486891746521	-2.0630555152893066
O	-4.357661247253418	4.0585479736328125	0.1413651406764984
O	-3.486201047897339	4.509309768676758	0.9051353931427002
O	-5.330716133117676	4.9213690757751465	-0.4009471535682678
O	-5.375092029571533	6.345304489135742	-0.11098197102546692
