104

O	-0.5010894382423743	-1.8932980906593224	0.7802867388474571
O	-1.5376522732423743	-1.2436597206593225	-0.3678838481525428
O	-0.7653475612423744	0.07404517534067767	-0.8330339531525428
O	-1.7304571742423742	0.9917149803406776	-0.37300706615254275
O	-2.434296577242374	0.8201826953406777	0.8036456188474573
O	-1.2484046332423744	0.3428354383406776	1.5058085788474571
O	-0.35321132324237436	-0.7396677506593224	1.485745668847457
O	0.4480874027576257	-2.6372100906593223	0.24770792884745718
O	0.7521566527576257	-2.778850820659322	-1.1323198741525426
O	2.0102166427576256	-3.392931970659322	-1.2403996411525426
O	2.9026494827576257	-2.936137030659322	-2.2083210711525427
O	2.5920654927576257	-1.6738257306593223	-2.604265191152543
O	1.2761897527576256	-1.4187384106593224	-2.856403491152543
O	0.3654371127576256	-2.3324224806593223	-2.3260800711525427
O	-2.748502057242374	-1.2690375806593224	0.6177412188474573
O	-1.8500195662423744	2.503827959340678	-1.3829691311525427
O	-2.8887857572423745	3.2467592293406775	-0.9472336818525428
O	-2.462802387242374	4.519735159340677	-0.7014551571525427
O	-3.381818597242374	5.565146939340678	-0.6057993951525428
O	-4.594219607242374	5.138571119340678	-0.1806512971525428
O	-5.064595917242374	4.253770029340678	-1.0984461241525427
O	-4.199665087242375	3.169634889340678	-1.1693566641525428
O	-0.8114429864423743	0.6350449879706777	-2.148652351152543
O	-2.1264808472423744	-0.04972654665932241	-2.3775256211525426
O	-2.383494727242374	-0.9823747506593224	-3.309434461152543
O	-3.4342169272423746	-0.5565036006593224	-4.062631501152542
O	-4.342949737242374	0.2964872733406776	-3.505654121152543
O	-4.406639747242374	0.3205459523406776	-2.159003051152543
O	-3.2849517272423743	-0.09505878965932235	-1.5782365781525427
O	-2.8205990972423742	2.0263635893406775	1.304160208847457
O	-0.5199582992423744	1.4784370213406777	1.596237868847457
O	0.9841628127576257	-0.3619057186593224	1.3921368988474572
O	1.4256023927576256	-0.6888514006593224	0.15251710884745717
O	2.2775466927576256	0.3489576623406776	-0.028522048152542778
O	1.8891649527576257	1.6027287773406775	-0.3580017281525427
O	2.1485269127576254	1.9187931093406778	-1.6415954011525429
O	3.4954153527576257	1.6642222493406775	-1.8760841191525428
O	4.211278042757626	0.7327738413406776	-1.1199447751525429
O	3.5716176327576252	0.09681227234067757	-0.1332879541525428
O	-1.8628091242423743	-2.3733773706593224	-1.1198989171525429
O	-0.9754109490423744	2.2326572393406776	-0.3426152861525428
O	4.350064462757626	-3.173552840659322	-1.8392841421525428
O	4.394560172757626	-2.5699191706593223	-0.7506466481525428
O	4.567623032757626	-4.549132240659323	-1.7616120741525427
O	5.410183402757626	-5.2929172906593225	-0.8996162456525427
O	1.6111133927576256	11.076689869340678	7.083334528847458
O	-0.2988190942423743	7.807585809340678	7.021347998847458
O	0.4869336527576257	4.981802889340678	9.349129148847457
O	0.7625384227576256	1.9616683593406776	7.151434198847457
O	1.2807268327576256	-1.4961727806593221	8.625492418847458
O	1.3646550327576255	-3.0275171306593225	5.191997478847457
O	4.351529102757626	-0.8421364506593224	4.158201208847458
O	7.726867462757626	-2.187961260659322	4.717045008847458
O	9.359296162757627	1.1366819763406775	4.128610178847458
O	8.669202032757626	4.795028329340678	4.6346802788474575
O	8.154899382757627	7.006191809340677	1.5893057088474571
O	12.305623462757627	1.1593383763406777	-7.397631981152543
O	9.296136362757625	0.4567197463406776	-5.2364674011525425
O	5.990510842757626	-0.9910827106593224	-6.536196181152542
O	2.3349983827576257	-1.3827932706593224	-5.563310681152543
O	-1.0788901832423743	-1.2454021806593225	-6.687402291152543
O	-0.8331492060423743	0.5823501372406776	-9.868132621152544
O	2.7862426127576256	-0.25518029065932235	-10.488847121152544
O	6.279486772757626	1.0170247023406775	-9.639824701152543
O	7.842137172757626	4.427152929340678	-9.059846841152543
O	13.345033062757626	7.015253109340677	4.184034908847457
O	12.468268762757626	6.8260908593406775	0.5035426188474573
O	4.298168172757626	9.420542679340679	-4.031303821152543
O	0.9420812027576256	11.021895269340678	-3.811257301152543
O	1.0194084127576257	10.760495269340678	0.06682734884745722
O	3.429340812757626	10.456903829340678	2.9077539188474573
O	3.5752185027576258	6.9170625393406775	4.2129672088474575
O	5.113882442757626	5.728329949340678	7.458355118847458
O	6.056864772757626	2.0892556993406775	7.162250658847458
O	4.991315712757626	-8.181218250659322	7.827490808847458
O	1.7153925727576254	-8.659601060659321	9.617224848847457
O	-1.6785748282423745	-8.702876480659322	5.0991940388474575
O	-3.222750817242374	-6.618540790659322	7.914303708847458
O	-2.9735722072423743	-3.2781648406593225	6.301482768847458
O	-3.9338185072423744	-0.03693231965932242	8.059651238847456
O	-2.8928374372423744	1.9461571293406776	5.231908558847458
O	-5.793325187242374	0.3494008043406776	3.011460088847457
O	-9.276253137242374	1.5577967703406777	3.0383428988474575
O	-10.559438437242374	-1.5147917006593223	1.3634498788474572
O	-9.923850457242374	-5.237521540659323	1.310013108847457
O	-8.482817337242375	-6.483664650659323	-2.002318271152543
O	-8.568505447242375	1.8911971593406776	-6.603599771152543
O	-5.095482057242374	3.632150949340678	-6.713266191152543
O	-1.5957578272423745	2.941108669340678	-5.228965821152542
O	1.6793346427576257	4.691998209340677	-5.246851441152542
O	2.0611467727576254	3.5548157193406777	-8.821197611152543
O	-1.3364510332423742	4.681950709340677	-10.040175341152544
O	-12.504880537242373	-6.275624700659323	-3.9839570711525427
O	-10.898833837242375	-8.670432340659321	-6.457870011152543
O	-8.169309957242374	-7.5799713406593225	-8.854424181152543
O	-4.483501417242374	-7.3548781706593225	-9.928064221152543
O	-3.1885258872423745	-6.680280370659323	-6.4949888311525426
O	0.3218888727576258	-7.485966290659323	-5.6151712411525425
O	-0.8409012711423743	-9.374740930659321	-2.399503471152543
O	-4.0180492572423745	-10.227871930659322	-0.49627897315254277
O	-4.887428927242374	-7.212179000659323	1.610231698847457
O	-7.159064957242374	-6.8172947806593225	4.5828657988474575
O	-8.110233617242374	-3.1660450606593225	4.785201808847457
O	-9.815218937242374	-0.9037976306593224	7.307722198847457
