79

O	-0.6388066421311472	1.0229699460983603	1.0895602258070491
O	-1.6912761651311472	1.2135362000983605	1.6736839358070488
O	0.39758174186885276	0.5154211755983603	1.6270315258070491
O	-0.9015710471311472	0.8527881270983604	-0.20526062119295102
O	-0.19441654813114717	-0.1375086529016396	-0.785728660192951
O	0.9804676718688528	-0.4644187399016396	-0.12375816508295101
O	0.9251469418688527	-0.5767276959016395	1.195458225807049
O	0.44880816186885286	-1.58030006590164	2.256462165807049
O	0.7626873718688527	-2.5761952459016397	1.375804535807049
O	2.136525491868853	-2.7736747459016398	1.020601385807049
O	-1.6046630531311472	-1.8412347159016398	1.6910861158070492
O	-1.1176581541311472	-1.92130733590164	0.327997371807049
O	0.11617633986885278	-2.4078835259016396	0.098509217807049
O	1.0986055018688528	-1.7486737359016398	-0.6784560821929511
O	0.6341282318688528	-2.45971569590164	-1.6816348841929512
O	2.435210131868853	-1.3195982659016394	-0.742516002192951
O	2.750435821868853	-2.56660812590164	-0.07776115109295101
O	3.096832771868853	-3.5904135759016396	-1.019423466192951
O	0.8476694618688527	-9.377677415901639	-7.597045684192951
O	-0.6388208481311473	-10.95699314590164	-4.4805358941929505
O	1.2574492318688528	-10.75707974590164	-1.199490854192951
O	1.8532340918688526	-14.220161345901639	0.21816965280704897
O	-1.6118522291311472	-13.072833045901639	8.63167385580705
O	-1.5575471741311473	-7.512982565901639	8.83403162580705
O	-0.5007869661311473	-8.238283985901639	5.25732501580705
O	-3.5722088581311473	-9.88343774590164	3.747060015807049
O	-5.882911928131147	-6.953975075901639	4.5401222658070495
O	-4.068323078131147	-5.298538515901639	1.6264491358070492
O	-4.444349738131147	-8.03444530590164	-0.970899732192951
O	-7.262720808131148	-8.01285482590164	-3.523346184192951
O	-10.437566728131149	-9.139609545901639	-1.7268405741929511
O	-5.235490028131148	3.60861319409836	-3.7099994141929513
O	-1.5961338761311472	3.2033081140983604	-4.30695734419295
O	0.6766899418688528	0.3350750260983604	-3.9513266541929513
O	3.8224825718688527	1.3027289300983602	-5.729800114192951
O	1.8396550918688526	1.3055918580983603	-9.01911377419295
O	1.970909871868853	-2.52442525590164	-8.93275253419295
O	-0.8742890261311472	-3.1639227959016396	-6.447782744192951
O	-4.044153258131147	-1.7639702059016398	-4.988908494192951
O	-7.803025328131147	-2.3659264459016396	-4.746606444192951
O	-10.659318538131146	0.08696154709836035	-4.207355954192951
O	-12.504044658131146	-2.5922790059016396	-2.2550311941929513
O	-10.292770808131149	-3.1158987359016397	0.785549552807049
O	-9.917442068131148	0.012011055098360313	5.1380471258070495
O	-11.200804658131148	1.9022303740983602	2.076983845807049
O	-6.811062058131148	2.0313463640983604	-12.33079556419295
O	-1.4347259261311471	-1.4199989259016395	-12.05921326419295
O	1.669110441868853	-3.40707933590164	-12.957307064192952
O	-2.9971391881311473	3.6669494640983604	-15.47814166419295
O	-1.7016817791311474	7.493328004098361	-0.130427665422951
O	1.7271038718688527	6.0666244840983605	-1.2723800141929509
O	1.5396854418688526	5.685345144098361	-5.078935404192951
O	-1.9321052281311473	7.176419004098361	-4.687664604192951
O	-0.21048019713114718	10.16326385409836	-3.115306934192951
O	2.303774951868853	10.364720394098361	-5.950463304192951
O	-0.43215036313114724	11.000445854098361	2.100513825807049
O	3.034576901868853	9.382546614098361	2.318265895807049
O	3.6918732018688525	9.94817318409836	-1.3475055841929509
O	4.920055161868853	12.64659575409836	-3.719197224192951
O	13.885324041868852	-2.33233869590164	-1.783002304192951
O	11.093289141868851	0.20246805409836038	-2.253049174192951
O	7.575858921868853	4.827300744098361	6.517393445807049
O	10.549775641868852	2.5491847840983604	5.995535075807049
O	10.008412441868852	-0.33778609190163966	8.427984875807049
O	7.665248881868853	-2.3070544359016396	6.185806295807049
O	10.160178241868852	-2.4366124859016396	3.270301735807049
O	13.095703041868852	-3.4870985659016394	5.430846825807049
O	10.121563141868855	-7.7320391459016395	3.359239455807049
O	11.654507141868852	7.14274501409836	-0.395887093192951
O	8.932670691868854	9.19164183409836	1.2394992658070492
O	2.668611531868853	-6.1142476359016396	13.28572293580705
O	3.8762520118688526	1.9176058940983602	9.56930084580705
O	3.536489581868853	3.0327208440983604	5.944538925807049
O	-0.15180145113114718	3.1586298040983602	5.245698465807049
O	-1.4385081151311472	2.94817035409836	8.78101350580705
O	-2.886164688131147	6.474589004098361	8.949328655807049
O	-5.459823908131147	5.33337117409836	6.3610228358070495
O	-7.719681228131147	3.5407663940983602	8.85350827580705
O	-8.698269958131148	8.858077914098361	7.662137215807049
