19

O	1.068	68.771	61.163
O	0.44	69.208	60.196
O	2.353	68.265	60.983
O	0.544	68.745	62.517
O	1.302	68.245	63.545
O	2.635	67.728	63.356
O	3.149	67.734	62.013
O	4.52	67.211	61.63
O	5.312	66.528	62.852
O	4.889	65.046	63.024
O	5.125	69.456	65.431
O	5.432	68.738	64.106
O	5.024	67.256	64.187
O	3.516	67.141	64.569
O	3.239	67.879	65.858
O	3.112	65.642	64.749
O	3.887	64.648	63.892
O	3.465	63.214	64.087
O	3.651	69.386	65.801
