36

O	-1.946	16.358	17.919
O	-2.172	15.75	16.669
O	-1.209	15.657	18.908
O	-0.712	14.37	18.644
O	-0.951	13.774	17.388
O	-1.685	14.466	16.394
O	-1.939	13.837	15.052
O	-1.53	12.622	14.845
O	-2.559	14.517	14.114
O	-2.496	17.769	18.195
O	-1.562	18.898	17.73
O	-0.087	18.668	18.021
O	0.534	18.136	17.1
O	0.501	19.023	19.21
O	-0.247	19.815	20.232
O	0.653	21.023	20.592
O	2.715	19.571	19.948
O	1.778	18.395	19.613
O	2.067	20.697	20.695
O	-0.582	18.988	21.449
O	-0.965	19.546	22.522
O	-0.501	17.715	21.405
O	-1.763	19.227	16.313
O	-2.17	20.831	15.868
O	-2.45	20.876	14.461
O	-3.081	21.379	16.816
O	-0.652	21.613	16.082
O	0.473	21.099	15.4
O	1.743	21.734	15.542
O	0.682	23.406	17.038
O	1.852	22.9	16.368
O	-0.56	22.748	16.874
O	3.089	23.591	16.551
O	3.156	24.765	17.391
O	1.996	25.238	18.041
O	0.766	24.569	17.866
