36

O	-1.483539534580448	17.112986382015166	17.26952931022241
O	-2.159245692383477	16.123505476259673	16.555781554723275
O	-0.9703240335797305	16.652853102530365	18.487174259417447
O	-1.5589480493357988	15.48660396119267	18.97632915955653
O	-1.5695801161128882	14.478815958679554	17.939432778366136
O	-1.9803584761886175	14.7457123639235	16.63334150439995
O	-1.9941410007296805	13.935102239413473	15.440844561716682
O	-1.8913867970302334	12.680117749483845	15.23679970199678
O	-2.6480699080437917	14.29962851191624	14.212091640667646
O	-1.9136466867723574	18.549727646613015	17.311683319452662
O	-0.9305104231566574	19.63287623401682	17.207859290731662
O	0.35304394341302103	19.441215795518048	17.8769617659461
O	1.1259730658714304	18.572537850245148	17.44332289611275
O	0.6639116110210448	19.998747687954065	19.175857688761873
O	0.1825444391452391	21.38635217833251	19.257385983361402
O	1.39317044725	22.168259268165137	19.06065957471778
O	2.9400437966630166	20.800328665885438	20.023277048755943
O	1.8660831545002492	19.767633281421762	19.911686098805223
O	2.4009282533003926	22.20088068725551	20.118691603027827
O	-0.7271127184958768	21.4315428085852	20.400584206496266
O	-0.47210750824781544	20.988002699096942	21.57157111391073
O	-2.0763079076961617	21.121715830032514	20.075315607134208
O	-0.9786719069744596	20.31674519608447	15.967829739858885
O	-0.8740207349708522	22.018255188100106	15.871661599407204
O	-1.5265294737146815	22.41571412464202	14.55515856255862
O	-1.5760107380951804	22.778364616046552	16.922143966819252
O	0.7744068378069733	22.56413907614653	15.74896972071013
O	1.5631898611941546	21.91643358285235	14.79654842727775
O	2.9301298116204793	21.757043889133023	15.107360653246404
O	2.806510683451389	23.23503648345273	16.714782653041567
O	3.2785093324968644	21.889952954008727	16.47660770164107
O	1.495936330015235	23.600165431490176	16.2786929252729
O	4.707977707330756	22.109195133906248	16.542067045744698
O	5.319878353544378	22.68838866250877	17.614123569879528
O	4.659801260374695	23.722344238185848	18.202278692310355
O	3.4966398340863414	24.12910223223723	17.555483739389807
