41

O	5.949033910582264	7.240706909756345	19.424012624146734
O	5.015163992185692	6.2771509899856595	19.8444808472429
O	4.710753671124741	5.623274187627846	20.994813293905086
O	5.3592568354510215	6.47011781870731	21.914720014930978
O	6.748345226931478	6.816164638562183	21.6330882600492
O	6.927222618577689	6.662265849351754	20.168955951064284
O	7.289400949883662	7.785587617968959	22.36559608101359
O	5.15891967667444	7.314717463646671	22.902301818040588
O	5.97593970378209	8.254256047307354	22.697587808211313
O	4.520372015187137	7.182917693412882	24.058895833618116
O	5.9768268160466524	9.543201807063971	22.062592316621814
O	6.748886509605308	10.462786084060095	22.72167204847249
O	5.8582273111510705	11.3267679669291	23.43380475053362
O	4.676964971099822	10.497011111066648	23.43431267500659
O	6.0725151035348155	9.908472101028348	20.88964305275644
O	5.4636419820128586	7.657823060871104	25.148126912011204
O	7.8551626316058325	8.387020206319209	25.595411691901845
O	6.871005206468757	7.945244678356472	24.85234024024642
O	5.037306429670845	8.561735268958845	26.06430752252229
O	5.7935497161606975	9.629303939163169	26.35452806198439
O	7.1600506324234825	9.521904951923881	25.90303999015148
O	8.987378544039592	8.046697978038402	26.397841168753935
O	9.025773162318044	7.562456142039853	27.739550761149644
O	10.090544804915766	8.74793486682392	26.39625526308808
O	2.63153405556693	9.120142201835115	22.689461215677415
O	3.2119776548984165	9.127656347380752	21.484363910718244
O	3.2800548004084096	10.500167640895295	21.165964448934773
O	4.233750426745496	10.947717700383294	22.25911212846193
O	3.5203144433211975	9.834573853325951	23.69237932966644
O	3.107823157164404	8.276492566677465	20.51728660090296
O	2.1934052229838716	7.080974092857202	20.776995037642596
O	1.6237835416450412	8.732198218260077	20.097852661723813
O	3.1867706992559617	8.696364394195847	19.109261855460844
O	5.822851909002114	7.199071026967188	18.00711770216134
O	5.502052639609325	6.066304517808158	17.257649168627786
O	4.078292020592485	6.2243023148785515	16.958077194866497
O	3.7323191540786214	7.274788839613556	16.16330610507719
O	2.4372051464517845	7.702878921452019	16.125489537621775
O	1.5051684844348916	7.017828957232803	16.84977946456823
O	1.885441541777496	5.988472872331569	17.663227957125756
O	3.1900516677976913	5.605369271398226	17.793183311272223
