41

O	4.429466247558594	1.1776444911956787	0.3970697522163391
O	3.8732388019561768	1.9039294719696045	-0.6644615530967712
O	2.6628518104553223	1.5656472444534302	-1.22930109500885
O	1.9489322900772095	0.4860697090625763	-0.7619322538375854
O	2.4662771224975586	-0.2505071759223938	0.28090232610702515
O	3.6793980598449707	0.10603608936071396	0.8309091925621033
O	1.5340248346328735	-1.237018346786499	0.5069613456726074
O	0.7482600212097168	-0.050549376755952835	-1.137708067893982
O	0.46244069933891296	-1.114022135734558	-0.377165824174881
O	-0.05044851824641228	0.49233224987983704	-2.2177155017852783
O	-0.7136102318763733	-2.0009496212005615	-0.43323901295661926
O	-1.7385505437850952	-1.8674427270889282	-1.3891842365264893
O	-2.898625612258911	-2.7271597385406494	-1.4615559577941895
O	-3.884385347366333	-2.3902249336242676	-0.3907327950000763
O	-0.8475481271743774	-2.9439380168914795	0.4006454050540924
O	-0.9534997940063477	1.5566061735153198	-1.7951339483261108
O	-1.2527958154678345	3.8987817764282227	-1.4344724416732788
O	-0.46527597308158875	2.8540050983428955	-1.8120533227920532
O	-2.2254295349121094	1.3326829671859741	-1.3986462354660034
O	-3.053187370300293	2.357264518737793	-1.0099966526031494
O	-2.5428669452667236	3.641223192214966	-1.0357844829559326
O	-0.7530841827392578	5.2658915519714355	-1.4457918405532837
O	-1.6188406944274902	6.319961071014404	-1.046952486038208
O	0.47584211826324463	5.527174949645996	-1.8177074193954468
O	-4.736241817474365	-2.7371859550476074	1.844617486000061
O	-5.723891258239746	-1.7902343273162842	1.6666977405548096
O	-5.771174907684326	-1.1526386737823486	0.44215530157089233
O	-4.873974323272705	-1.4437227249145508	-0.5643677115440369
O	-3.842254877090454	-3.024205207824707	0.8354344367980957
O	-6.656735897064209	-1.4837483167648315	2.705662488937378
O	-6.0239033699035645	-0.6047954559326172	3.6922426223754883
O	-7.045172691345215	-2.7408666610717773	3.3021352291107178
O	-7.748195171356201	-0.7582941651344299	2.1323440074920654
O	5.649773120880127	1.5571033954620361	0.9323448538780212
O	6.278369903564453	0.8846247792243958	1.994067907333374
O	6.5345354080200195	-0.5196809768676758	1.5621415376663208
O	7.652235507965088	-0.7140858769416809	0.7869221568107605
O	7.994590759277344	-1.9476664066314697	0.33718061447143555
O	7.209226131439209	-3.025813102722168	0.6624891757965088
O	6.0763421058654785	-2.830620527267456	1.4478459358215332
O	5.7438883781433105	-1.571608066558838	1.8953567743301392
