98

O	-3.281919836673077	-2.367010251658974	3.93495913125641
O	-3.367826896673077	-3.5747556316589746	2.6011526112564103
O	-2.152124078673077	-2.8066363916589743	1.4578185812564104
O	-2.8135788166730773	-2.768522811658974	0.1296127062564104
O	-2.928868706673077	-1.4338701716589743	-0.09665592374358964
O	-0.8815761716730772	-2.255198411658974	-0.9913533997435896
O	-0.6754747766730772	-2.2307168916589744	-2.34234825874359
O	-1.8760516056730774	-3.3884105116589742	-0.8363228917435896
O	-2.5593232766730774	-3.7252321716589742	-1.9850212187435896
O	-1.685203144673077	-1.1225893816589743	-0.5317288897435897
O	-1.1448539138730773	-0.3123098616589741	0.5414358872564103
O	-1.7407119466730774	0.5940243793410258	1.3017150512564104
O	-0.9248809566730772	1.5277518443410258	1.7670833212564105
O	0.08858309332692271	1.5778740533410258	0.8165690312564104
O	1.2600893933269226	2.242595858341026	1.0563382912564103
O	1.3056570433269228	3.6195346283410257	1.1914240412564103
O	2.3107032233269225	1.5477324863410258	0.7172637452564103
O	2.2063501433269224	0.38178360534102584	0.09322432025641039
O	1.0585319533269228	-0.2668823016589741	-0.17133301164358963
O	3.856332692286912e-05	0.3284284993410258	0.27337978725641043
O	-8.297701626673078	-4.769295561658974	-5.847699948743589
O	-6.138871156673077	-6.226246251658974	-3.03650733874359
O	-8.151650176673076	-5.3997508516589745	0.11853301925641038
O	-11.802995836673077	-5.5862459716589745	1.1929173812564104
O	-12.099444836673076	-1.8246023216589742	1.6204201212564104
O	-10.760883386673077	-1.3564380616589742	-1.9120027587435897
O	-6.568129636673078	-10.573239241658975	-4.6434491287435895
O	-5.029595066673077	-10.300860841658974	-1.2244770957435898
O	-1.8505853196730773	-8.273839491658974	-0.5652169507435897
O	1.5551316033269227	-8.545988901658975	-2.25070712874359
O	3.129350363326923	-9.692787441658973	-5.505274708743589
O	-1.8337062396730772	-10.511471341658973	-6.916248488743589
O	-5.918679616673077	-2.404401171658974	-11.08425515874359
O	-7.697282716673078	-0.3097973016589741	-8.43102093874359
O	-6.902674546673078	0.7225097093410258	-4.856308708743589
O	-4.575471286673078	2.892570528341026	-2.7549145287435897
O	-0.9481761356730772	3.928915448341026	-3.14594978874359
O	1.750855893326923	5.950347028341026	-1.3990861487435895
O	2.2295704433269226	9.185748978341026	-3.24131027874359
O	5.742652933326923	10.052371558341026	-4.401144368743589
O	-5.3727540366730775	9.848676898341026	-8.70287082874359
O	-2.322317756673077	8.124802018341025	-10.14130682874359
O	12.624052563326924	-4.548872531658974	-5.077235268743589
O	5.7040653233269225	-2.209760291658974	-6.625993198743589
O	7.434547413326922	-4.319866721658975	-3.96953572874359
O	6.490433753326923	-6.7107555116589745	-1.1325827457435897
O	7.059569733326923	-4.001167521658974	1.5164701912564105
O	4.865388243326922	-1.228446391658974	3.0078171512564102
O	6.895093113326923	1.963409339341026	2.5880609812564104
O	7.072477733326923	4.0170116183410265	5.805812721256411
O	11.644606763326923	5.383000858341026	0.8550107412564103
O	13.104171963326923	3.9887109783410257	-4.00643026874359
O	3.6562046233269223	6.309805708341026	-6.474035668743589
O	4.504500093326922	3.028757798341026	-4.717625568743589
O	2.306645623326923	0.14879095834102585	-3.64816574874359
O	2.4312059833269224	-3.7345282716589745	-3.59528550874359
O	0.4727060933269227	-5.391892141658974	-6.52884742874359
O	0.4782646933269228	-3.265979451658974	-9.70667103874359
O	2.774511613326923	-8.275985471658974	-10.55827545874359
O	-0.5930287536730773	-7.732998941658973	-12.25277405874359
O	-3.398765956673077	1.0299212157410258	-12.92358095874359
O	-5.737078086673077	3.7155298083410258	-11.56385965874359
O	-5.175635536673077	4.080140748341026	-7.815417108743589
O	-5.668712126673078	6.949936908341026	-5.317926668743589
O	-3.2507415166730773	8.326695678341025	-2.6973435587435897
O	-3.7541803966730773	7.2786602383410255	0.9306417112564105
O	-0.3799646096730772	8.525956738341026	2.2461379912564103
O	2.995598883326923	9.824451118341026	1.0875349312564104
O	5.035475123326923	6.769082808341026	2.0615014512564103
O	6.862250843326923	8.617724718341027	4.87428870125641
O	7.220005753326922	7.951596978341025	8.60864318125641
O	3.5406143933269227	8.883929478341026	8.91272558125641
O	2.3232317133269227	6.462126648341026	6.223861921256411
O	1.0997589333269226	3.891424858341026	8.75926815125641
O	-1.2520191961730773	6.398677678341026	10.40971244125641
O	-2.2012992066730774	8.172767628341026	7.189357831256411
O	-3.101682796673077	4.842156998341026	5.666102701256411
O	-5.374859816673077	3.8243968283410257	8.58022302125641
O	-7.093358666673077	7.166712478341026	8.36010436125641
O	-7.418697786673078	7.889907628341025	4.613596031256411
O	-7.671346086673077	4.428496408341026	3.08599273125641
O	-11.434908036673077	4.880652368341026	2.80331246125641
O	-10.904289456673077	8.176636428341027	0.9908053312564105
O	-8.494797286673077	6.672938098341026	-1.5356063787435896
O	-10.872877636673076	3.7257366583410256	-2.0561439987435897
O	12.135976163326923	-9.552260741658975	1.3077734012564104
O	8.560157103326924	-9.084098641658974	2.50619039125641
O	7.994171063326923	-6.342232321658974	5.151769301256411
O	4.619993573326923	-5.279966071658974	6.486979441256411
O	5.894931813326923	-5.037584341658974	10.07131104125641
O	4.593003053326923	-1.440384911658974	10.06213494125641
O	1.2709699233269227	-3.1322245516589744	10.77085764125641
O	2.4686874633269227	-5.819433361658974	13.16341274125641
O	2.9905174433269224	-8.793465261658975	10.83358484125641
O	6.092928993326923	-10.883078041658974	11.340648141256409
O	9.059630463326924	-9.881943041658975	9.18118262125641
O	2.4264941533269226	-11.179755541658974	3.95447078125641
O	-1.0612410816730773	-10.410041741658974	5.323919021256411
