20

O	57.661410452435945	68.11095614468184	21.593225379687535
O	58.52623985175002	69.03155542762543	22.877606876357998
O	57.93042385827815	70.71709526055578	22.454390635842998
O	59.14059058381492	71.5754690091454	22.41200118051021
O	59.187857289400576	71.94249501246793	21.104773314931517
O	57.9436026587843	73.52947103912354	22.369608434723553
O	58.4139369222141	74.80575879260876	22.504291358045286
O	58.8688466259962	72.74607805441367	23.279226235490434
O	60.05678896347763	73.37531399395404	23.583646978375683
O	58.28137022895354	72.94748783320931	21.070730906494198
O	57.19640273030721	72.39724789854053	20.283143215168433
O	57.236301058550026	71.61136588685895	19.217633691047403
O	56.19077049993321	71.73844066688497	18.414693680123644
O	55.76442193098368	73.04264565986774	18.639138029585034
O	54.55191938367031	73.48544341703095	18.18577382055117
O	54.28012257564979	73.61892637590476	16.83499858323415
O	53.88862564821996	74.14953566788627	19.091654042294543
O	54.42180773479918	74.45020610651378	20.268542190017826
O	55.62378011259265	74.04262028221815	20.71281782171038
O	56.25500041457185	73.26621188663478	19.893474417756114
