97

O	1.8948053921566672	0.6829533201923075	-2.997098847064104
O	2.120764642156667	0.04021680419230744	-1.8406130070641038
O	1.066241122156667	-0.7166532118076926	-1.4192364870641039
O	-0.057264497843332984	-0.13961006180769242	-1.235674724064104
O	-0.34496398684333296	0.4904732931923075	-2.304185077064104
O	0.566040132156667	0.8543625840923075	-3.248333787064104
O	0.389110352156667	1.4976115621923074	-4.4538305070641035
O	-1.085448490343333	1.3067483661923074	-1.6129495470641038
O	-1.897711603843333	0.5281851741923075	-0.865431448064104
O	-1.081153872243333	-0.4658752718076925	-0.339522530064104
O	-1.410000894843333	-1.3016378418076928	0.857564712935896
O	-0.882675964843333	-1.8963383318076925	2.044181012935896
O	-0.586159534843333	-1.8674267418076926	3.3942184529358963
O	-1.8538351518433331	-2.9385747718076924	2.540512382935896
O	-2.0085172678433327	-3.159818541807693	3.872765782935896
O	-2.895318177843333	-2.840104301807693	1.587668482935896
O	-2.5583660278433333	-1.8836065418076928	0.683083692935896
O	-3.264276137843333	-3.9591948818076923	0.7678028129358961
O	-3.591067997843333	-3.665912101807693	-0.518124467464104
O	-5.716006727843333	-1.5619322018076924	9.483266282935896
O	-4.373505947843333	-4.202478401807692	7.058011422935897
O	-7.301060117843333	-4.603544971807692	4.7013261929358965
O	-11.002868747843333	-5.395936461807692	4.916632252935896
O	-12.391494637843333	-2.3554084818076926	3.0953689129358963
O	-3.798804707843333	-7.138317911807691	10.303078932935897
O	-2.705743777843333	-8.897340001807692	7.225658412935896
O	-0.659511197843333	-7.134205311807692	4.599404052935896
O	3.052408252156667	-6.622516321807693	5.105465772935896
O	5.483992032156666	-5.894226101807692	7.888682582935896
O	1.449099372156667	-5.991728551807692	10.901955332935897
O	-2.419347207843333	2.9273274981923074	12.009654432935896
O	-4.781345327843333	3.5903827781923074	9.096323562935897
O	-5.395494507843333	2.4442570481923074	5.519501322935896
O	-4.196363377843333	3.3827083581923074	2.034245492935896
O	-0.797954932843333	4.582533888192308	0.7830711229358961
O	0.945069292156667	5.674515448192308	-2.388358197064104
O	1.322548702156667	9.439981208192307	-2.334413027064104
O	4.810255922156667	10.797238228192308	-3.0003559070641037
O	-4.574924407843333	12.481253038192309	3.962375532935896
O	-1.047279566063333	11.717206638192307	5.089443332935896
O	13.596671262156667	-1.6985402618076928	2.3065074429358963
O	8.104598892156666	4.744005368192307	4.454243232935896
O	7.128273672156666	1.0468321611923075	4.529261132935896
O	8.346974572156666	-2.047578801807693	2.756281002935896
O	7.150749152156667	-5.507393231807693	1.785220192935896
O	6.579520932156667	-4.411188271807692	-1.828634687064104
O	3.6910350621566668	-2.7156970218076926	-3.6556827970641037
O	5.337967642156666	0.2978297311923075	-5.301933427064104
O	4.366894992156666	0.6221257651923076	-8.914663997064103
O	9.771103362156667	4.154360328192308	-6.8264242770641035
O	12.615135662156666	5.248164248192308	-2.655535467064104
O	3.9610397121566665	8.398824978192307	1.1823453529358958
O	4.787213182156667	4.683385568192308	0.8219688129358961
O	2.7157058821566666	1.6089251431923075	1.7743039329358963
O	3.393632442156667	-1.6828736618076925	3.760242832935896
O	2.6389482421566672	-1.7114901218076928	7.512063972935896
O	3.2869238721566667	1.6871653691923076	9.156543492935896
O	6.901365352156667	1.2875612311923075	10.174886932935896
O	6.3735468121566665	-2.2869957318076928	11.419081032935896
O	3.6376929821566666	-0.9764079418076924	13.651707532935896
O	-0.17676578984333302	6.880559478192308	11.051876932935896
O	-3.1593496378433326	8.448985398192308	9.325789972935896
O	-3.688762437843333	7.129204308192308	5.834305782935896
O	-5.4672375178433334	8.289787808192308	2.6757191729358962
O	-3.967912597843333	8.276940318192308	-0.761999495064104
O	-5.0544581478433335	5.499567228192308	-3.117027627064104
O	-2.359363447843333	5.862169878192308	-5.7681193070641035
O	0.826724752156667	7.7694382681923075	-6.443148137064104
O	2.8454947021566666	4.5804991981923076	-6.608513197064104
O	3.712633182156667	5.006973568192308	-10.304637647064103
O	3.185189452156667	2.7045277481923073	-13.307347867064104
O	-0.581881772843333	2.8563229981923075	-12.785262167064104
O	-0.623083290843333	2.3487286781923076	-9.010690917064103
O	-2.268587767843333	-1.0572213118076927	-9.262504877064103
O	-5.253929917843333	0.10795383419230753	-11.317900867064104
O	-5.485386017843333	3.3048423281923074	-9.322051037064103
O	-5.366065887843333	1.2859809511923075	-6.140380427064104
O	-8.100957287843332	-0.9205936318076925	-7.624588037064104
O	-10.294239487843333	1.9692401681923073	-8.576066447064104
O	-9.835638377843333	4.260584748192308	-5.607235307064104
O	-9.208978657843334	1.9470610881923074	-2.674842157064104
O	-12.795014037843334	2.7030754181923076	-1.7186831070641038
O	-12.338160937843334	6.458809118192308	-1.5193395470641038
O	-9.141731127843332	5.995154388192308	0.3906323399358961
O	-11.050588937843333	3.7655198481923073	2.8405248629358963
O	11.990960962156667	-9.042546711807692	-0.595982636064104
O	8.175145682156666	-9.252733661807692	-0.610387546064104
O	6.625934622156667	-8.220950981807691	-3.947279247064104
O	2.9343718921566673	-7.840664501807693	-4.601499917064104
O	3.0959071521566663	-9.465966961807693	-8.017812847064103
O	1.4523832421566671	-6.299032891807692	-9.236845867064105
O	-1.654598272843333	-8.101397761807693	-7.9497208370641035
O	0.7236234621566671	-13.058546161807692	-6.1321401770641035
O	3.883508432156667	-15.091512661807693	-6.549519147064104
O	7.113576992156666	-13.143256661807692	-6.044418067064104
O	2.412706272156667	-11.922835561807693	0.7649170829358961
O	-1.392131507843333	-12.015451561807692	0.520058242935896
