19

O	-6.107267379760742	61.2685546875	60.68175506591797
O	-7.173881530761719	61.720603942871094	61.389991760253906
O	-7.392221450805664	61.481990814208984	62.70806884765625
O	-6.369235992431641	60.68287658691406	63.3421745300293
O	-5.23931884765625	60.19054412841797	62.65871047973633
O	-5.111873626708984	60.50690460205078	61.24342346191406
O	-4.086244583129883	60.086631774902344	60.49818420410156
O	-4.48451042175293	59.480255126953125	63.55205535888672
O	-5.102195739746094	59.49433135986328	64.80768585205078
O	-6.2443695068359375	60.210357666015625	64.7053451538086
O	-7.23846435546875	60.44649124145508	65.90084838867188
O	-8.410888671875	61.470489501953125	65.8313217163086
O	-8.34842300415039	62.57398223876953	66.68161010742188
O	-9.674440383911133	60.668827056884766	66.0809555053711
O	-10.060592651367188	60.98868942260742	67.44429779052734
O	-9.353538513183594	59.158180236816406	65.86263275146484
O	-7.892547607421875	59.17208480834961	66.17927551269531
O	-9.564050674438477	58.61103820800781	64.39591979980469
O	-10.906545639038086	58.55314636230469	63.919944763183594
