85

O	0.6486589489183676	-2.2482776768163264	0.08069484071428601
O	1.1076600749183678	-1.3353139868163262	0.9343621087142862
O	2.2426904949183677	-1.5934043768163262	1.721965468714286
O	2.6405867049183676	-0.29984556681632624	2.195547288714286
O	3.6113946749183676	-0.05747713681632627	2.980256218714286
O	1.9519948349183678	0.7356677931836737	1.470932318714286
O	2.016559304918368	2.1310028701836736	1.443446668714286
O	2.6567322449183677	3.074692253183674	2.200043088714286
O	2.292752324918368	4.324466023183674	1.680984278714286
O	2.339737514918368	5.370002813183674	2.552332588714286
O	3.458767374918368	5.359659813183674	3.341094768714286
O	4.223129954918368	4.220247523183674	3.427497798714286
O	3.697960324918368	2.956753983183674	3.104587208714286
O	1.4160590149183678	4.194230123183674	0.6969610887142861
O	1.2519206649183678	2.8851114931836737	0.571145998714286
O	0.4086231079183677	2.2910116421836735	-0.28813407528571394
O	-0.3185324530816323	2.7944927691836736	-1.2780550972857139
O	-0.8233134330816323	1.7679022753836737	-1.923728121285714
O	-0.2619651170816323	0.6562730031836737	-1.400841866285714
O	-0.6863943780816323	-0.6060718668163263	-1.7938424112857139
O	-1.3358015050816323	-0.5813591168163263	-3.029177171285714
O	-1.9238294850816322	0.5424313431836736	-3.497207011285714
O	-1.6422714350816323	1.7932859054836736	-2.974445421285714
O	0.44667357691836773	0.9426918641836737	-0.25381767928571397
O	1.1205690449183678	0.09735114318367377	0.5965610487142861
O	-0.5217458260816323	4.1922002931836735	-1.560676251285714
O	0.6526090179183677	4.886537023183674	-1.333231980285714
O	0.9243076949183676	5.309521793183674	-0.06458782728571394
O	-0.22560742308163229	5.886005383183674	0.708481388714286
O	-1.3661201750816323	6.063713973183674	-0.25217268228571393
O	-2.5499392750816323	6.408260873183674	0.534432378714286
O	-3.5851591650816323	6.659102523183674	-0.475066830585714
O	-1.6929675750816322	4.650418103183673	-0.758831441285714
O	-1.6893945350816322	3.8947563931836737	0.43525335871428605
O	-2.422281765081632	2.7610142441836736	0.167164155714286
O	-0.8191545980816324	4.465582413183673	-3.033287551285714
O	8.772164944918368	5.9647403231836735	-3.071184111285714
O	5.874994744918368	5.234354793183673	-0.892549132285714
O	3.1487869849183676	6.8765215331836735	-2.863379161285714
O	2.4425508249183676	8.278315493183673	-6.321388581285714
O	-0.44795470708163226	9.633768323183673	-8.340566201285714
O	-1.9647764850816323	5.530097603183673	-11.911595491285713
O	1.7091673049183678	4.810494583183674	-11.331149091285713
O	3.675408024918368	4.468582623183673	-8.096824851285714
O	4.2132789349183675	2.3677277701836736	-4.968268271285714
O	7.800950684918368	1.6230773881836738	-3.973962501285714
O	9.429628574918368	0.1775299931836738	-0.878758759285714
O	7.793299924918368	-5.397764916816326	0.6541118787142861
O	5.647606804918368	-2.7603765468163264	-1.120943024285714
O	5.7548976149183675	-2.9741651268163265	-4.921132791285714
O	3.0913012249183676	-1.3347777068163262	-6.974901561285714
O	4.240169714918368	-0.3881736268163265	-10.401749551285713
O	1.6044856349183678	0.3383464831836738	-13.056902591285713
O	-5.749737025081632	-6.779388196816327	5.3600786387142865
O	-2.618740125081632	-6.062542436816326	3.243093178714286
O	-1.3753974550816321	-9.425545056816325	1.9776754587142862
O	-0.6220279090816323	-10.162255056816328	-1.6790980912857139
O	2.5947303149183676	-11.987515056816328	-2.543416431285714
O	2.3155462549183676	-6.203940896816326	-7.596849941285713
O	4.209676024918368	-7.4304934468163255	-4.514890041285714
O	2.3981352649183676	-6.635113296816326	-1.2908699062857139
O	2.831156614918368	-6.673660816816326	2.443192688714286
O	4.715264454918368	-3.5991707068163263	3.6354749887142863
O	3.249511744918368	-1.5382885168163263	6.473246298714287
O	6.138212154918368	0.44500657318367365	7.946561618714286
O	3.7569106949183677	2.2627296391836738	10.314526408714286
O	2.306990354918368	4.384448163183674	7.565766998714286
O	-1.1895617650816321	5.824064853183674	7.256398068714287
O	-3.5961370550816323	5.822914053183673	10.206007108714287
O	-4.295099595081632	9.312725373183675	8.831932878714287
O	-7.662739895081632	6.907911473183674	7.160797338714286
O	-5.337707965081632	7.354002293183673	4.167287518714286
O	-6.150151025081632	3.796538503183674	3.100869988714286
O	-5.7714408150816325	2.163852016183674	6.516930028714286
O	-2.093440905081632	1.3369428861836736	7.085532848714285
O	-0.18565015008163227	0.31439633318367366	10.218645708714286
O	2.587357054918368	-2.2889494968163264	10.567341308714287
O	-4.084712135081633	-3.1480822968163267	7.555088988714287
O	-6.798741875081633	-2.3738308468163263	5.047235788714286
O	-5.093312435081632	-1.3837901668163264	1.924723358714286
O	-5.8618486750816325	-0.48222680681632646	-1.662763791285714
O	-8.255814725081633	-2.714982446816326	-3.438834771285714
O	-8.243059585081632	-0.7409584568163261	-6.662285691285714
O	-11.911526135081631	0.2501476031836738	-6.183594781285715
O	-12.992604435081633	-2.993244746816326	-4.554659971285714
