36

O	8.202178337968393	9.690715331425963	18.457430982710733
O	6.877943536535085	9.61744955312919	18.57561242704834
O	6.215484987073297	10.24424861894018	19.644955850725914
O	4.914313021353491	9.641909902019	19.650881626463978
O	3.9588094937150125	9.934952268629182	20.43708634238716
O	4.895638611799944	8.474733737576907	18.808940651987285
O	3.9587052682354233	7.478288149775702	18.52409664359423
O	2.634888607842873	7.296518933967944	18.819526143312395
O	2.246451433325886	6.09423621595792	18.21333249932598
O	0.9258588418136684	5.982419474372379	17.90006761427351
O	0.09986454041612625	6.439330602611879	18.89175618271053
O	0.6119935593814034	7.217075711575896	19.90309807214095
O	1.8208642452076784	7.918406081123118	19.75059334194911
O	3.240726573983253	5.571996053252955	17.511523162658246
O	4.251397426321079	6.409318535678656	17.69590838680787
O	5.462925931170178	6.295130052742904	17.12878642419597
O	5.996418781348902	5.313038230418128	16.412495201112144
O	7.264526759913146	5.617899330001785	16.255819107486012
O	7.506908397117087	6.70715188084464	17.01675381479311
O	8.737922972984766	7.3477664151906295	16.96858401964499
O	9.744224816146755	6.516274520603074	16.474245941444256
O	9.462401835789969	5.460258220598371	15.678545485086767
O	8.185557376951794	4.934212695121545	15.577867361415752
O	6.337267948517768	7.2535081209417	17.499770510199138
O	6.144380536644795	8.379375864175142	18.265992598430756
O	5.3032760398698615	4.160086515613336	15.897701846877505
O	4.378159181464291	3.721957059714697	16.82783359498196
O	3.1437144255917153	4.303430827055905	16.8429556407863
O	2.5126790884698753	4.567218420086265	15.50710960551956
O	3.3507360395366486	3.8737316199240395	14.471763031017717
O	2.875133621641507	4.311842021334144	13.159989664127
O	3.6709617485168993	3.5222380506838045	12.21295557307701
O	4.737345178204155	4.528727695892961	14.567850356645566
O	4.416700322945321	5.903619511027301	14.628967208974892
O	5.553190741398136	6.574424315829166	14.238099948001212
O	6.216925342519125	2.9517155639369443	15.705716438580053
