36

O	-3.0244126319885254	-2.8593711853027344	1.4222123622894287
O	-3.4443159103393555	-2.36448073387146	0.046587295830249786
O	-4.553842067718506	-1.4574939012527466	0.5245918035507202
O	-4.076616287231445	-0.14504334330558777	0.5767720341682434
O	-4.6888933181762695	0.9162143468856812	0.9267376065254211
O	-2.6874332427978516	-0.09219079464673996	0.15645712614059448
O	-1.7889964580535889	0.9944693446159363	0.0441603921353817
O	-1.8998390436172485	2.339169979095459	0.29110008478164673
O	-0.6503304243087769	2.9039790630340576	-0.0021900723222643137
O	-0.5206462144851685	4.265111446380615	0.1737826019525528
O	-1.534949541091919	5.079935550689697	0.6136466264724731
O	-2.7585766315460205	4.48397970199585	0.8940659761428833
O	-2.913022756576538	3.1346235275268555	0.7275503873825073
O	0.143638476729393	1.8996024131774902	-0.4046887755393982
O	-0.5049403309822083	0.8005815744400024	-0.38169553875923157
O	-0.12340960651636124	-0.4842345714569092	-0.6957992911338806
O	1.0663424730300903	-0.9142963290214539	-1.1381901502609253
O	0.9618307948112488	-2.2216877937316895	-1.3070852756500244
O	-0.33640775084495544	-2.648815631866455	-0.9646760821342468
O	-0.6860414147377014	-3.9750592708587646	-1.059381127357483
O	0.23635412752628326	-4.892393589019775	-1.4910634756088257
O	1.497711181640625	-4.460896968841553	-1.8211978673934937
O	1.88096284866333	-3.1224639415740967	-1.735183835029602
O	-0.9939001798629761	-1.5423074960708618	-0.5870944261550903
O	-2.3086462020874023	-1.3511277437210083	-0.15150496363639832
O	2.186666965484619	-0.010475022718310356	-1.3822195529937744
O	1.9529457092285156	1.1715141534805298	-1.7063860893249512
O	1.616747498512268	2.2660419940948486	-0.7639269232749939
O	2.2398910522460938	1.6029669046401978	0.6144310832023621
O	3.697195053100586	1.251244306564331	0.013370801694691181
O	4.442219257354736	0.7815902829170227	1.2659615278244019
O	5.3533034324646	1.5114223957061768	1.8504860401153564
O	3.3856208324432373	-0.3789384663105011	-0.391222208738327
O	2.559697389602661	-0.754891037940979	0.7945529222488403
O	3.3722829818725586	-1.1464325189590454	1.8281773328781128
O	2.9018101692199707	-0.5798474550247192	-2.6265344619750977
