27

O	36.396	3.677	13.087
O	34.892	3.693	13.238
O	36.863	2.829	11.954
O	37.096	3.421	14.401
O	37.9	6.221	13.092
O	38.031	7.192	11.94
O	39.152	5.499	13.504
O	36.734	5.187	12.67
O	37.293	7.074	14.297
O	36.84	6.45	15.499
O	36.712	7.55	16.54
O	35.976	7.003	17.631
O	37.999	8.095	17.161
O	37.85	9.495	17.349
O	38.098	7.402	18.504
O	38.877	8.066	19.491
O	36.621	7.353	18.841
O	36.275	6.37	19.889
O	35.419	6.67	20.9
O	35.213	5.631	21.747
O	35.997	4.691	21.237
O	36.245	3.338	21.656
O	35.656	2.87	22.777
O	37.091	2.61	20.922
O	37.68	3.103	19.82
O	37.512	4.34	19.341
O	36.69	5.117	20.03
