25

O	5.001356601715088	-0.03206852823495865	-0.8057836294174194
O	4.313976287841797	-0.16337227821350098	-1.9935942888259888
O	2.9415242671966553	-0.1887165606021881	-2.084352493286133
O	2.227611780166626	-0.07357700914144516	-0.895656168460846
O	2.893326759338379	0.05876772105693817	0.3045748472213745
O	4.272294044494629	0.07859617471694946	0.34148505330085754
O	6.459102153778076	-0.013117245398461819	-0.7861955165863037
O	7.160091876983643	0.12202565371990204	0.43703779578208923
O	7.14506721496582	-0.11778990924358368	-1.8709607124328613
O	0.9014811515808105	-0.06504983454942703	-0.6654157042503357
O	1.8898111581802368	0.14628547430038452	1.2595505714416504
O	0.6575767397880554	0.06814798712730408	0.6446393132209778
O	-0.6559708714485168	0.12224848568439484	1.3123613595962524
O	-0.7055387496948242	0.2640317976474762	2.6831767559051514
O	-1.9342060089111328	0.31297221779823303	3.2916698455810547
O	-3.0975680351257324	0.22054779529571533	2.5316579341888428
O	-3.055373191833496	0.07861841470003128	1.1602658033370972
O	-1.8050833940505981	0.032797109335660934	0.5793675780296326
O	-1.7499761581420898	-0.11019198596477509	-0.8036726713180542
O	-4.285269737243652	-0.016169104725122452	0.3849111497402191
O	-4.484701156616211	0.6835047006607056	-0.7842831611633301
O	-5.645691394805908	0.6032497882843018	-1.529663324356079
O	-6.641110897064209	-0.22620820999145508	-1.0587238073349
O	-6.496263027191162	-0.9547245502471924	0.11201013624668121
O	-5.306467533111572	-0.8308080434799194	0.8150708675384521
