81

O	-4.4418049370892865	-0.6881559482857145	-2.4391654149999997
O	-3.2186273670892867	-1.0622639782857146	-2.8899371049999996
O	-2.4329699100892865	-0.27358746828571445	-3.8881052049999996
O	-2.9395401570892865	0.8939426537142856	-4.285518825
O	-3.6136192570892867	1.3789730963142857	-3.1718244049999997
O	-4.720766877089287	0.5928932207142856	-2.8055209949999997
O	-5.536799587089287	-1.5040216882857143	-1.9836663299999997
O	-6.553927407089287	-1.7482813482857142	-2.9195390249999997
O	-5.589109877089286	-2.4346055782857148	-1.1096828339999998
O	-2.061894060089287	1.9680541877142854	-4.551575085
O	-3.900970217089287	2.6751094817142853	-3.707295675
O	-2.5955868670892865	2.9250678317142853	-3.6729755849999997
O	-1.6308080256892867	3.9894467517142855	-3.751981775
O	-2.165859364089287	4.499264991714286	-4.979078245
O	-1.1090742330892869	4.210727601714286	-5.873135705
O	0.2075649129107131	4.695034641714286	-5.468842945
O	0.47850267291071336	4.2570471617142855	-4.109295195
O	-0.4366539570892869	3.4522960517142858	-3.4707746349999997
O	-0.20851244708928673	3.5975969217142856	-2.0962075569999996
O	1.807271332910713	5.006724351714285	-3.7386815649999994
O	1.8898494729107134	6.311843851714285	-3.3344082549999996
O	3.1495734529107136	6.940325501714286	-3.1483320349999997
O	4.295248352910713	6.423474061714286	-3.7462385449999998
O	4.227733602910713	5.035434601714286	-3.667724185
O	3.013711302910713	4.527438511714285	-4.221190235
O	-10.645152927089287	0.6523181897142856	5.158593165
O	6.795017622910714	3.0343900517142854	8.742098275
O	9.076576672910713	4.285504991714285	5.877834195
O	9.474670572910712	8.011355181714285	6.504428165
O	10.899559972910712	10.936884471714286	4.446609835
O	5.994640992910713	12.036949881714285	6.503327205
O	4.825951442910713	8.384289791714286	6.331383335
O	4.7128442229107135	7.163977931714286	2.767080665
O	4.7822484429107135	3.290376851714286	3.014780395
O	4.813149952910713	0.41542338371428555	5.477694335
O	7.299279242910713	-2.4635285882857145	5.550710275
O	7.3515928929107135	-2.819733578285714	-2.060149043
O	9.610561472910712	-1.7985351282857145	-4.895696505
O	7.338795722910713	0.9498152427142856	-5.885537515
O	7.8136086429107126	2.5490126817142853	-2.428503195
O	11.477904272910713	3.209863171714286	-3.3272993349999997
O	12.965065772910712	6.693192901714286	-2.904925885
O	6.945858072910714	-0.5584903482857144	-12.774249225
O	4.197709632910714	-4.122320948285714	-10.714357305
O	5.446369652910714	-7.656783948285714	-11.241999885
O	8.261799982910713	-8.374483418285715	-8.650420145
O	7.070965382910713	-5.466437438285714	-6.448176845
O	-2.9126953070892867	-6.773828528285714	7.067519075
O	-1.9187003210892868	-3.533268168285714	8.820383175
O	-0.8171953410892868	0.005490961714285536	8.174339035
O	-2.9986198170892866	4.218826031714285	5.125194995
O	-6.271068467089287	5.853966661714286	4.301921155
O	-9.398508587089287	4.518932341714286	6.012526215
O	-11.927198027089288	5.972296191714285	3.451061675
O	-12.645835027089287	4.403511571714286	0.027889275000000158
O	-8.726533547089288	10.565053061714286	2.4908881350000005
O	-9.399457927089287	-3.406020488285714	1.9704335350000004
O	-5.898064937089287	-1.9700530482857144	2.380286365
O	-5.523687627089287	1.4816420257142855	0.7890623950000004
O	-2.8968524170892866	4.241990841714285	0.06319272500000017
O	-0.33486236708928674	4.615019291714286	2.5626369050000006
O	-0.5351997970892868	0.8450343857142856	3.3009037250000004
O	1.657083632910713	-0.26656057828571433	0.4423654650000002
O	4.792101632910714	-1.9572118882857146	1.2993531950000003
O	3.297964992910713	-3.4247691682857138	4.436952025
O	2.7029370729107134	-6.914592578285713	5.752994085
O	3.346211702910713	-7.296116618285714	0.7474993650000001
O	0.5934939329107134	-4.684699458285714	0.07699985500000017
O	1.0992193929107132	-3.8841957382857144	-3.5816046249999998
O	-1.8731069020892868	-2.5503528582857147	-5.692862915
O	-5.6576351470892865	-2.2675090182857147	-6.289316955
O	-8.477976157089287	-0.4345479682857145	-8.137921235
O	-9.665653767089287	2.2866554317142853	-5.714942355
O	-10.019833817089287	1.0024722967142856	-2.201810985
O	-12.651577327089287	-1.3426096382857142	-0.8894487869999999
O	-14.701532927089287	-1.2746588682857143	-4.066149934999999
O	-11.943609627089288	-5.166915468285715	-6.905396075
O	-6.300847777089286	-5.594521528285714	-3.2122171649999998
O	-3.4148053770892868	-7.465837598285715	-4.915112915
O	-0.33057044708928673	-8.527448798285715	-2.952335565
O	3.243598712910713	-9.628214418285713	-3.778507825
