13

O	3.0506274700164795	-0.2928507924079895	0.18148575723171234
O	1.580023169517517	-0.36340245604515076	0.14843396842479706
O	3.702353000640869	0.9079073071479797	-0.10466457158327103
O	3.698101758956909	-1.3611297607421875	0.47880256175994873
O	0.582718551158905	-1.7236050367355347	0.4635528028011322
O	-0.9515436887741089	-1.0073885917663574	0.22595913708209991
O	-0.6302696466445923	0.2836975157260895	-0.09490719437599182
O	0.6705502271652222	0.5950486660003662	-0.12971705198287964
O	-2.276435613632202	-1.462031364440918	0.2967999577522278
O	-3.3424971103668213	-0.5926806926727295	0.036135513335466385
O	-2.9860167503356934	0.6894246935844421	-0.2812003493309021
O	-1.7020682096481323	1.1547458171844482	-0.35620924830436707
O	-1.395542860031128	3.172264575958252	-0.8644713163375854
