13

O	8.029749987135396	-0.5694335429281943	25.59633198592295
O	8.531363971710238	0.7753967780050277	25.431673707213655
O	7.513932120144532	-1.154691290139883	26.598449043233455
O	8.372905189510167	-1.6170693021357008	24.714834356678715
O	9.144718497822339	1.3026078360711697	23.90070346494044
O	9.495991239963399	2.9343528710674938	24.33124451375794
O	8.98420471215774	3.0761328955124907	25.581941016270008
O	8.675441506885674	1.9036384150295627	26.169177257768123
O	9.724957893541212	4.040949828736006	23.57295449634828
O	9.60196472388865	5.361441703749865	24.02203267498751
O	9.315462742257393	5.486885246611031	25.30604168295963
O	9.066410883922181	4.37094625816322	26.081425964118335
O	7.574623330467923	5.26355368758263	27.16660473448544
