80

O	-6.159369490585716	-4.575601217876786	0.10124134441071403
O	-4.976873870585716	-3.910559517876786	0.18780331141071405
O	-4.374320020585715	-4.821224777876786	-0.4209303755892859
O	-4.378625340585716	-2.9019035978767858	0.964517231410714
O	-5.0277265005857155	-2.102887957876786	1.870178853410714
O	-4.421850840585716	-0.915317107876786	2.159721243410714
O	-4.892994760585715	0.337145161123214	2.233404793410714
O	-4.682769890585716	0.9903930431232141	3.4428577534107143
O	-3.3745296525857156	1.085745400123214	3.744206833410714
O	-2.5616936585857157	0.13176734712321403	3.0558446634107144
O	-3.0735067465857155	-0.878397497876786	2.244372433410714
O	-2.3847198385857156	-1.803532667876786	1.542925902410714
O	-3.0540566835857157	-2.7096457778767857	0.793325340410714
O	-2.8532996045857155	2.402050022123214	4.026517813410714
O	-2.6950283015857157	3.153754482123214	4.967626553410715
O	-1.9501984355857156	2.794397612123214	2.947279623410714
O	-2.6105699712857158	3.7410908121232143	2.041633983410714
O	-4.006529120585716	3.571158162123214	1.806058513410714
O	-4.811763950585716	4.751028122123214	2.216198863410714
O	-4.617271490585716	5.225987112123214	3.5226074234107143
O	-3.3040004765857156	5.7809333021232145	3.3827046734107142
O	-2.4875357868857155	4.677087542123214	2.8657109834107137
O	-5.406261660585716	4.951079942123214	4.737754443410714
O	-5.712443590585716	3.5471993321232143	5.106947933410714
O	-5.116712010585715	-10.505708747876787	7.123221843410715
O	5.401286319414284	3.406201552123214	9.815364743410715
O	5.749037429414284	0.9947685931232141	6.8299687234107145
O	7.912648229414285	-1.8719724078767856	5.396243273410715
O	10.683045729414285	-1.707540637876786	2.7845875834107137
O	13.155385429414284	0.957704444923214	-1.5892503565892862
O	9.598492029414285	1.566267502123214	-0.311775462589286
O	6.500982449414285	3.697390222123214	-1.226649716589286
O	6.479056149414284	7.628708572123214	-1.3836780565892859
O	2.9058274794142847	7.668387772123214	0.375600112410714
O	4.450802479414285	6.417759702123214	3.668227353410714
O	6.611756489414284	9.622997142123214	3.817247043410714
O	4.992776569414285	12.417004152123214	1.8188959834107141
O	3.0858895894142844	14.015702952123215	4.867129863410714
O	-2.8315973555857155	10.328140792123214	-4.974760066589286
O	-6.408284650585715	9.968734182123214	-6.446666246589285
O	-9.432722330585715	8.602586652123215	-4.359532226589286
O	-8.148910950585716	5.054940122123214	-4.668670526589286
O	-5.108144060585715	5.030536522123215	-6.955026146589286
O	-1.6579508445857156	6.240939412123214	-6.019841976589285
O	4.316009339414284	5.3647843221232145	-5.447911786589286
O	8.007937029414283	4.642352512123214	-5.144475236589286
O	10.830448129414286	6.079588492123214	-2.812929996589286
O	4.696149219414284	-7.239430997876786	6.838864383410714
O	3.757232689414284	-6.091590127876786	10.408221543410715
O	0.3801084694142842	-4.638739137876786	9.266920383410714
O	-3.1572071765857155	-5.177077627876786	10.723193663410715
O	-9.369217630585716	-4.001528247876786	9.526598783410714
O	-8.233108760585715	3.660519112123214	-12.177395836589286
O	-5.608239920585715	0.932524515423214	-12.226792736589285
O	0.5327084994142846	-1.051890457876786	-11.572810636589285
O	-2.918658023585716	-6.441898277876786	-8.917263396589286
O	-9.588938910585716	-14.435161847876786	2.9795761234107143
O	-4.399585350585715	-9.749984147876786	1.862890813410714
O	-2.3984539435857157	-6.726159987876786	2.790127243410714
O	-3.7841156205857156	-3.759329547876786	4.7975456334107145
O	-2.6937766345857157	-1.0033705878767858	6.568574433410714
O	0.7937871194142843	-1.108647057876786	7.937471913410715
O	2.0500082694142847	-3.4536870878767862	5.116065033410714
O	2.7088811094142846	-0.588651777876786	2.5881601734107145
O	6.059520959414285	-0.17300761787678598	1.108140059410714
O	6.763814009414284	-3.8574387078767858	1.796545373410714
O	5.760672569414285	-2.7120818978767858	-3.6758129965892854
O	2.5050890194142843	-2.665506547876786	-1.511084606589286
O	0.7702388894142844	0.515000352123214	-2.6353073465892862
O	-3.1073544205857155	0.5583620961232141	-2.274706666589286
O	-6.390734670585715	-0.974420827876786	-2.097370306589286
O	-9.997179920585715	-0.8022440978767859	-1.423491536589286
O	-10.316587760585715	-2.222115077876786	2.118257193410714
O	-8.542654770585717	-5.299716037876786	3.2578899734107143
O	-9.439867940585716	-8.742220767876786	1.887199233410714
O	-7.301046600585716	-6.6913071578767855	-4.953633756589285
O	-4.317621730585715	-5.187994997876785	-3.3321348665892856
O	-2.444823122785716	-3.084280307876786	-5.855438706589286
O	1.3814695694142842	-2.8708705578767857	-6.131424236589286
O	3.8724338494142847	-0.5363283778767859	-7.942893046589285
