24

O	7.241552352905273	0.42139843106269836	-0.9194260835647583
O	6.698585033416748	-0.5529179573059082	-0.05202329158782959
O	7.517910003662109	-1.3463627099990845	0.5762933492660522
O	5.2644524574279785	-0.6700119972229004	0.13692718744277954
O	4.434925556182861	0.18973895907402039	-0.5475183129310608
O	3.066335678100586	0.0765182301402092	-0.36593693494796753
O	2.2096290588378906	0.9360511302947998	-1.0485209226608276
O	0.8728688359260559	0.7997100949287415	-0.8491238951683044
O	0.32100656628608704	-0.14318998157978058	-0.008036723360419273
O	1.1424542665481567	-0.9877933859825134	0.6639490723609924
O	2.522242546081543	-0.8700934052467346	0.47784423828125
O	3.3665223121643066	-1.725367546081543	1.157546043395996
O	4.7331061363220215	-1.634743571281433	0.9954259991645813
O	-1.137595534324646	-0.169476717710495	0.10473328083753586
O	-1.6666265726089478	-1.0203075408935547	0.8653801679611206
O	-1.9889800548553467	0.7060765624046326	-0.5916208028793335
O	-3.406949996948242	0.6853306889533997	-0.4860987663269043
O	-4.015863418579102	-0.2329626977443695	0.3372367322444916
O	-5.4088568687438965	-0.2852925956249237	0.4682369530200958
O	-6.173779010772705	0.6076712608337402	-0.2483849674463272
O	-5.598752498626709	1.5327430963516235	-1.075422763824463
O	-4.204316139221191	1.5597394704818726	-1.184839129447937
O	-7.67063045501709	0.6155732274055481	-0.16247646510601044
O	-8.119239807128906	1.5079689025878906	0.906198263168335
