15

O	13.694	3.017	16.1
O	14.633	4.148	15.767
O	17.086	5.028	14.438
O	18.583	3.57	15.69
O	14.444	1.813	16.283
O	15.808	1.943	15.61
O	15.794	1.71	14.095
O	15.994	3.347	15.76
O	15.843	0.261	13.672
O	17.268	4.064	15.25
O	14.604	1.473	17.8
O	13.96	2.201	18.585
O	15.672	0.033	12.454
O	16.061	-0.594	14.554
O	15.341	0.505	18.083
