80

O	-1.2977584350861542	-0.8481411289076919	-0.8889876065384611
O	0.1209365079138458	-1.2263977089076918	-0.980491939538461
O	3.231398697913846	0.5597404175923081	-1.5880083415384612
O	2.796334817913846	-1.539135798907692	-1.6048285215384612
O	-1.242785911086154	0.4024334950923081	-0.1990701485384611
O	0.24426170791384583	0.7732226650923081	-0.05653673793846111
O	0.8745090379138456	-0.13360892090769194	1.0141810384615388
O	0.7373183279138458	0.12357491309230811	-1.3807371615384612
O	0.5829586979138457	0.2570932340923081	2.395170878461539
O	2.1546229279138456	-0.18037908490769194	-1.5026667615384612
O	-1.9863958700861541	1.4518822800923081	-0.9108691455384611
O	-3.196040932086154	1.243896405092308	-1.5144341115384612
O	0.2979754979138458	-0.6014231289076919	3.458574258461539
O	1.365398517913846	1.0118763190923081	2.989130118461539
O	-2.0825344010861544	2.576345941092308	-0.38475961253846114
O	-0.41910288508615423	0.4620884096923081	-12.78007380153846
O	2.691812997913846	0.7938155320923082	-10.641629701538461
O	5.721326117913845	-2.9599196589076917	-7.148105281538461
O	7.101513147913845	-6.503354108907692	-6.890831531538462
O	2.6344554379138456	-7.311971998907692	-9.00366118153846
O	1.4867276779138456	5.8708603610923085	-13.33279210153846
O	3.2469080179138454	9.143650431092308	-14.15000030153846
O	4.016969157913845	10.286509761092308	-10.608504101538461
O	4.764038117913845	6.774443371092309	-9.29904527153846
O	2.158518377913846	7.054504391092308	-6.547951731538461
O	-0.8807091600861543	5.003484271092308	-5.451628051538461
O	-3.464611372086154	7.679216671092307	-4.738472031538461
O	-3.995472192086154	10.186519781092308	-1.9522290515384613
O	-1.1756134913861542	8.654830141092308	-8.21987073153846
O	-3.275455112086154	6.043612151092308	-9.96848376153846
O	-6.131080882086154	0.7805280190923081	-12.34955290153846
O	-4.884682532086154	-2.788163958907692	-11.80024170153846
O	-2.3718241620861544	-2.842350808907692	-8.96999227153846
O	-2.137062249086154	-3.5839164389076923	-5.217704521538462
O	-4.432065392086154	-0.643999618907692	-4.5189023015384615
O	-6.0604091320861535	-1.092740078907692	-1.0884511515384612
O	-9.837066642086153	-0.5827175889076919	-0.966326060538461
O	-10.341304132086155	2.353920121092308	1.4385069384615388
O	-13.215259972086153	4.692442281092308	2.398562998461539
O	-11.617223172086154	7.8960835710923085	1.050188998461539
O	-4.543063062086154	-9.087214298907691	3.143517028461539
O	-3.870491302086154	-7.373615388907693	6.452663478461538
O	-1.3135652420861543	-5.144316188907691	8.131529668461539
O	1.6743201979138456	-7.197392208907692	9.32657788846154
O	7.006777357913846	2.686577371092308	11.32982849846154
O	4.782623427913846	2.4372040910923083	8.28331615846154
O	5.048241547913845	3.7083123010923082	4.710336668461538
O	4.751303217913845	7.503801811092307	4.712817118461539
O	1.493484237913846	7.371296941092307	2.757188288461539
O	-1.1075769441861543	4.614625421092308	2.3011665284615392
O	-3.692670702086154	2.595136151092308	4.105962128461538
O	-1.4259816760861543	1.192059069092308	6.815366798461539
O	-0.4734805230861542	4.654059621092308	8.134434428461539
O	-4.1637405220861545	5.649265941092308	8.12799048846154
O	10.260197727913846	6.079861571092309	11.23989869846154
O	8.189883837913847	6.408156511092308	8.04513799846154
O	9.562071827913845	5.153138571092308	4.697496098461539
O	8.693192177913847	6.240103161092309	1.121738778461539
O	8.329384677913847	2.802728681092308	-0.43390924653846114
O	8.332138947913846	-0.9500889989076919	0.2460917414615389
O	11.901718427913845	-1.159285248907692	-1.0777072115384612
O	12.907844927913846	1.548710441092308	1.416554008461539
O	11.231370127913847	-0.16583752990769185	4.360189778461539
O	4.597972297913845	-2.356188288907692	9.390012538461539
O	3.421077037913846	-3.324748728907692	5.906696448461538
O	0.7692269779138459	-5.374529958907692	4.115346988461539
O	1.014976357913846	-9.170215118907691	4.598922488461539
O	1.1661938479138456	-9.715673208907692	0.819943845461539
O	4.486734217913845	-7.813768658907691	0.4244910804615389
O	5.780726107913846	-9.23153177890769	3.722883798461539
O	6.712559617913845	-12.116679908907692	-0.7961098975384611
O	-2.360908102086154	-9.641309408907691	10.76256449846154
O	-3.668531522086154	-6.547505198907691	12.58151519846154
O	-6.7002417520861535	-6.174423778907691	10.30992989846154
O	-8.670123142086155	-5.6494331589076925	3.952820588461539
O	-8.357029412086154	-6.250724988907692	0.20731495646153886
O	-7.0165130820861545	-4.9665661789076925	-3.085508651538461
O	-9.522238602086153	-3.9648573989076916	-5.739960491538461
O	-9.411739242086155	-3.060461078907692	-9.42132078153846
O	-15.399450872086154	0.4239540454923081	5.059462288461539
