13

O	48.04186711479504	25.128972198271736	42.53561710817705
O	47.2548526714078	26.285512727233083	42.76697582934011
O	47.09311587331566	26.84786059354981	44.08516587696178
O	47.846321095404086	26.7243803200245	45.04691343601379
O	45.9028159675442	26.97399131876943	44.6647969066109
O	45.88682680682638	26.023360028112744	42.21872578243158
O	45.996633695513225	25.802672233264794	40.78437847095209
O	46.15471864400292	26.888523224400252	39.90387205044369
O	46.389742342007686	24.647738760735983	40.183471740056234
O	45.70066505944774	23.31644583398885	40.21181640494875
O	45.580147693240285	27.936470861972253	40.17929397877413
O	46.22701572117406	26.30469137816797	38.75070002406652
O	46.62290969503856	24.999397540049543	38.960422407228734
