13

O	48.164	25.145	42.78
O	47.123	26.221	42.775
O	46.777	26.584	44.269
O	45.833	27.397	44.469
O	47.514	26.087	45.168
O	45.872	25.734	42.002
O	46.138	25.424	40.556
O	46.041	26.293	39.435
O	46.618	24.303	39.952
O	46.898	22.932	40.451
O	45.554	27.514	39.668
O	46.401	25.848	38.267
O	46.793	24.497	38.599
