13

O	1.1561269760131836	-0.36677372455596924	-1.2789959907531738
O	1.3156977891921997	0.8682811856269836	-0.29990154504776
O	2.6882121562957764	0.38534480333328247	0.34860482811927795
O	3.298891067504883	-0.7549653053283691	0.05228453874588013
O	3.1237242221832275	1.2144275903701782	1.1756197214126587
O	0.34982234239578247	0.13468727469444275	0.8659173250198364
O	-0.9144443869590759	-0.029647991061210632	0.1177545115351677
O	-1.870296835899353	0.9041971564292908	-0.18709272146224976
O	-1.3407726287841797	-1.214849591255188	-0.4307689070701599
O	-0.6497855186462402	-2.5399396419525146	-0.37740254402160645
O	-1.84095299243927	2.114469051361084	0.14232096076011658
O	-2.836256980895996	0.27327871322631836	-0.901972770690918
O	-2.4799654483795166	-0.9885097146034241	-1.023658275604248
