80

O	-0.8915925788283585	-1.343235236328358	-0.9984919089701498
O	-1.3628256618283585	-0.7993940163283579	0.22326121502985016
O	-2.759683261828359	-0.5172006393283579	0.44501481602985016
O	-3.7231243718283586	-1.028159866328358	-0.11910019687014983
O	-3.2038892218283586	0.704497534671642	0.7257808980298501
O	-0.6018721778283586	0.46303339467164206	0.48407483602985013
O	0.8088515681716413	0.13361999467164207	0.6235674520298502
O	1.2983463381716416	-0.42289537232835794	1.8194103760298501
O	1.6764949481716414	-0.10384795832835791	-0.39638282597014984
O	2.1306089481716413	0.852604878671642	-1.4579619439701499
O	0.7925283881716416	-0.050204256328357955	2.8727065360298503
O	2.556116648171641	-0.583417974328358	1.55837674602985
O	2.7010948581716416	-0.636518544328358	0.18700182702985016
O	-4.000569011828358	4.884827963671642	-10.320713243970149
O	-1.1596737689283585	6.213220993671642	-8.18642336397015
O	2.368731088171641	7.426486443671642	-8.90155480397015
O	4.313868608171641	4.692287383671641	-7.13793142397015
O	7.445882618171641	3.0984307936716418	-8.55258174397015
O	3.9439876981716413	0.470054833671642	-10.832539943970149
O	-3.5925648118283586	9.961388063671643	-11.00914434397015
O	-5.635981051828359	9.849014273671642	-7.82056383397015
O	-6.167291211828359	13.433986433671643	-6.70982417397015
O	-2.4173891718283587	10.661563033671642	-3.6389871539701497
O	-3.996306341828358	8.065352483671642	-1.33094998397015
O	-4.724227891828359	4.339025003671642	-1.54799033397015
O	-7.922424661828359	4.5315683236716415	0.4136774160298502
O	-9.284759891828358	4.7443248736716415	3.93274756602985
O	-7.928713851828359	7.7743154136716415	-2.29124700397015
O	-8.530171421828358	5.503331593671642	-5.258867533970149
O	-8.422457941828359	1.3194912136716421	-10.26492624397015
O	-5.319539621828358	-0.3660849453283579	-11.62278114397015
O	-2.7066316518283586	0.011440337671642042	-8.91320100397015
O	-0.9484337138283585	-1.8683356463283578	-6.080274663970149
O	-4.237948111828358	-1.674318966328358	-4.1088813439701495
O	-4.746377011828359	-4.297959596328358	-1.40299633397015
O	-7.823202931828359	-6.498632586328358	-1.2487540639701498
O	-9.252060591828359	-6.034201556328358	2.2496605960298504
O	-12.59709625182836	-6.5811778963283585	4.029949266029851
O	-13.496088951828359	-2.911651476328358	4.6317191860298506
O	0.14467157817164145	-9.957300266328357	-7.114073993970149
O	2.5086261381716417	-10.033456766328356	-0.9777255399701499
O	2.6552076581716415	-9.229892426328357	2.7266028560298503
O	3.5284070081716417	-6.400470306328359	5.1345583160298505
O	7.3028663881716405	-6.345468986328358	5.847627126029851
O	8.867187748171641	2.809602983671642	13.18129135602985
O	5.637956728171641	3.6114309536716425	11.368148256029851
O	3.4681848181716415	2.9501719136716424	8.33242306602985
O	1.9751562081716416	4.837509363671642	5.421731686029851
O	-1.2519574302283585	6.722610423671642	6.054715946029851
O	-4.742499751828358	5.9175072536716415	4.72916680602985
O	-4.1910462018283585	2.3712026136716418	3.7578359760298503
O	-4.339159731828358	-1.314389366328358	4.501621726029851
O	-1.0327886278283587	-1.488793206328358	6.405586906029851
O	-2.0357531218283587	1.176853942671642	8.942347446029851
O	-5.322865301828359	-0.749909736328358	9.324856936029851
O	3.296537178171641	7.794673453671642	9.78325819602985
O	4.1424631281716415	8.991698123671643	6.26877909602985
O	3.686222298171641	8.202780973671642	0.6662888430298501
O	6.084146068171641	5.256660353671641	0.2879213220298502
O	8.65878581817164	7.731133033671642	-1.0922150379701498
O	8.927623048171641	6.530982343671642	4.229728486029851
O	11.936375748171642	5.366780273671642	2.25398929602985
O	9.41518554817164	1.347375353671642	7.904684336029851
O	6.441058928171641	-1.025618436328358	7.733538556029851
O	5.463288388171641	-1.534456536328358	4.1638330460298505
O	4.589255098171641	-4.307989596328358	1.6425582860298502
O	7.138539898171642	-6.8354676263283585	0.49316589602985017
O	6.702994638171641	-5.873738506328358	-3.15917813397015
O	8.011014078171641	-2.375920756328358	-2.48306397397015
O	10.558916148171642	-3.3835195063283576	0.1233583290298502
O	11.957496048171642	-3.132438606328358	-5.187018193970149
O	6.156096038171642	-11.073432466328358	5.839549516029851
O	3.6464411781716413	-10.390634266328357	8.61370865602985
O	0.7255339581716413	-11.576501866328357	6.51440854602985
O	-0.2331143558283586	-12.947285566328357	3.10437032602985
O	-2.4899197418283583	-10.925783866328358	0.8536642260298501
O	-3.0066768318283588	-9.675997936328358	-2.64353976397015
O	-3.5087152318283588	-6.6897305463283585	-4.879824243970149
O	-6.666140361828359	-6.605955536328358	-6.928602143970149
O	-7.968160961828358	-4.492567466328358	-9.816698683970149
