16

O	31.473	66.725	6.804
O	31.742	67.61	5.713
O	32.69	66.792	7.805
O	33.851	66.306	7.145
O	32.508	66.155	9.224
O	33.247	65.323	9.678
O	30.936	65.555	9.352
O	30.612	65.494	10.776
O	29.648	66.327	11.098
O	29.209	66.443	12.243
O	29.23	67.057	9.838
O	28.344	67.925	9.744
O	30.015	66.581	8.848
O	30.095	67.161	7.449
O	28.926	66.658	6.558
O	27.646	66.911	7.16
