16

O	-23.121339797973633	-13.947235107421875	45.67203903198242
O	-22.59492301940918	-13.483271598815918	46.918434143066406
O	-23.355316162109375	-15.502962112426758	45.78400421142578
O	-22.09963035583496	-16.140745162963867	45.97426986694336
O	-24.20710563659668	-16.198322296142578	44.66893005371094
O	-23.819917678833008	-17.13718605041504	44.02621841430664
O	-24.733963012695312	-15.02444839477539	43.5771369934082
O	-25.926773071289062	-15.552659034729004	42.91783905029297
O	-27.002197265625	-14.858467102050781	43.21520233154297
O	-28.12055778503418	-15.120579719543457	42.770484924316406
O	-26.587066650390625	-13.746849060058594	44.15711212158203
O	-27.329734802246094	-12.883017539978027	44.65660858154297
O	-25.257984161376953	-13.889666557312012	44.346946716308594
O	-24.440645217895508	-13.12628173828125	45.37125015258789
O	-24.06142234802246	-11.71105670928955	44.854740142822266
O	-25.217103958129883	-10.963942527770996	44.441184997558594
