74

O	-1.596782344953846	2.537063380038462	0.8347025318076924
O	-0.8072681139538461	1.8825536200384616	-0.22561478019230774
O	-0.7847809379538462	2.3767379200384617	-1.4628399921923076
O	-0.01541216495384612	1.842660100038462	-2.399933768192308
O	-0.033537969953846114	1.9642700000384616	-3.8012168781923075
O	-0.977662828953846	2.8874859200384617	-4.3167648481923075
O	0.13647140804615382	0.9648624670384618	0.06895653680769226
O	1.1777039250461538	1.4153789890384618	-1.2313553311923078
O	0.6106948240461538	0.27298671903846183	1.2363699718076924
O	-0.016993523953846124	0.20175882503846182	2.4755866818076924
O	1.7575301450461538	-0.3850014959615382	1.1707990718076924
O	2.3589967150461537	-1.1558288299615382	2.127874491807692
O	1.622703045046154	-1.4217536399615383	3.1914173818076925
O	0.5700900180461539	-0.5994424299615381	3.457915271807692
O	3.372534805046154	-1.9941417999615383	1.4888711818076923
O	3.257247905046154	-2.256363169961538	0.06498390780769231
O	3.8834079750461536	-1.6515897999615383	-1.0215117011923078
O	3.263793815046154	-1.067330429961538	-2.1315941881923077
O	1.8845781850461538	-2.1020251999615382	-0.2844208601923077
O	1.318276885046154	-1.8021208899615382	-1.4864163881923076
O	1.832228795046154	-0.8044059099615383	-2.1988741781923076
O	1.517381925046154	-0.7586438899615381	-3.5826463281923075
O	12.255624315046154	3.243655470038462	0.19109063680769228
O	9.807514615046154	4.227613500038462	-2.5236619481923075
O	7.197632885046153	1.522146043038462	-2.1121618181923076
O	4.814469075046153	2.789012940038462	-4.806694448192308
O	3.8202839950461542	5.314857910038462	-7.377265328192308
O	0.3664232020461539	6.250444090038462	-8.621776318192309
O	-2.3062140349538462	8.910229030038462	-9.285771678192308
O	1.205463255046154	10.539671810038461	-5.252366948192308
O	4.093055985046154	8.387637130038462	-4.133066228192308
O	4.170204965046153	5.753938520038462	-1.4249341211923077
O	6.966079975046154	5.208253180038462	1.0274967318076924
O	7.868710795046154	2.666739300038462	3.6443878118076927
O	8.660075385046154	4.753309770038462	6.655135521807692
O	7.111276425046153	0.9742888860384618	10.194358101807692
O	4.212205555046154	2.420097440038462	8.295889141807692
O	3.371627845046154	3.329967770038462	4.733944791807692
O	3.273336555046154	7.003305840038462	3.8798696918076927
O	1.595340955046154	8.669216840038462	0.9601336018076922
O	-8.782122574953846	-3.354147359961538	4.968648251807692
O	-5.476561884953846	-1.6222233799615382	5.425796321807692
O	-5.589571314953846	4.322975190038462	7.968794781807691
O	-1.665176424953846	9.388318900038461	4.763015241807692
O	-0.31708900035384613	6.943905690038462	7.3617321918076914
O	-1.3239692329538462	3.3016170300384617	6.874209251807692
O	-0.6330514109538461	0.04470699903846187	8.668033991807691
O	2.270991865046154	-1.5907937299615384	6.783841801807692
O	2.080299215046154	-4.892473999961537	4.904641981807692
O	5.031962545046153	-6.678130819961538	3.3845799918076924
O	4.148935775046153	-7.191424629961538	-0.2112545441923077
O	1.6242531250461538	-6.134428729961538	-2.7830587481923077
O	-0.06544887795384613	-8.811873589961538	-4.795346398192308
O	1.7270066050461539	-7.666384029961538	-7.992042848192308
O	5.202430005046153	-8.520016619961538	-6.772847258192308
O	-7.3730520149538465	-14.518953119961537	-0.6086618671923077
O	-2.798591724953846	-5.960703819961537	-7.759290478192308
O	-0.8092796039538461	-2.9652813899615382	-6.715975468192308
O	-3.0806576549538462	-2.1518702499615383	-3.7439764581923076
O	-3.906107564953846	-5.692996539961538	-2.515682568192308
O	-1.493278934953846	-6.480498369961538	0.38128077880769223
O	-0.5275009889538461	-9.614787119961537	2.0545547718076924
O	1.276115795046154	-10.565471419961538	5.230479071807692
O	-4.041107054953846	-12.500498219961537	5.287479551807692
O	-4.7571637349538465	-10.065907819961538	2.448165881807692
O	-6.155143464953847	-6.528224529961538	2.686535831807692
O	-7.5391029349538465	-3.679540629961538	0.6021637718076924
O	-5.598697594953847	-0.5153620599615382	0.5662014318076922
O	-6.379365914953847	3.0190761500384617	-0.8147248891923078
O	-10.009402824953845	1.9371401700384618	-0.24529550019230772
O	-12.314598784953846	4.789567910038462	-1.0236624731923076
O	-9.466589044953846	7.193696570038462	-1.7829543981923077
O	0.46584487104615385	10.314848820038462	-11.877571098192307
O	-2.208320984953846	4.481753280038462	-14.762417098192309
