18

O	7.567	9.649	1.659
O	7.985	9.482	2.808
O	9.39	9.033	3.122
O	9.802	7.926	2.147
O	11.177	7.372	2.533
O	12.191	8.5	2.307
O	11.885	9.672	3.277
O	10.41	10.189	3.138
O	13.635	7.916	2.377
O	14.009	7.234	1.048
O	14.651	8.984	2.688
O	7.175	9.668	3.963
O	5.735	9.742	4.01
O	5.165	9.693	5.293
O	3.77	9.746	5.348
O	3.01	9.854	4.238
O	3.541	9.901	3.006
O	4.918	9.844	2.847
