89

O	-1.0671547386901405	-0.7875435899859149	-0.6493869127746471
O	-0.20440159569014066	-0.3396206199859151	-1.4895845737746471
O	0.17814247530985938	-1.150963149985915	-2.608559784774647
O	-0.6121271376901406	-0.5620575099859151	-3.806747344774647
O	-0.20750426069014066	-1.158109669985915	-5.117025634774648
O	-0.13997211369014062	-2.577715709985915	-4.835564534774647
O	-1.2036499696901406	-2.922612479985915	-3.830920984774647
O	-0.6177784806901406	-2.474671179985915	-2.5201202847746473
O	1.1690004093098594	-2.8979224299859148	-4.353659994774647
O	2.2984959893098593	-1.9318120799859149	-4.378591664774647
O	1.1312744493098594	-3.9199440199859144	-3.392387284774647
O	0.6256817493098594	0.493825750014085	-0.6300295257746471
O	0.3497827133098593	1.4045669950140849	0.5901899852253528
O	-0.32787183069014064	1.494237723014085	1.676847165225353
O	0.19930199930985937	2.037647970014085	2.859613485225353
O	0.9385693693098593	3.1816312200140846	2.854581265225353
O	1.6757243693098594	3.0446484200140853	1.793152895225353
O	1.2746038193098594	2.492177530014085	0.5612769852253529
O	-0.7767794346901407	12.717769290014084	-3.750050774774647
O	-0.9199861606901407	9.167555060014084	-5.115828324774648
O	1.3329888793098594	6.662571440014085	-3.291053024774647
O	0.6495450493098593	3.513138790014085	-5.344842154774647
O	-1.8265519306901405	1.822589431014085	-7.654527374774648
O	-3.5266138106901406	-1.5503693999859152	-7.993373554774648
O	-6.15038896069014	-3.045644079985915	-10.281236934774647
O	-9.280016560690141	-1.6331988599859149	-8.509375514774646
O	-8.01204137069014	1.807329882014085	-7.662809474774647
O	-5.266936670690141	3.6102270300140846	-5.835605854774648
O	-3.7890997506901405	4.644674600014085	-2.487330424774647
O	-3.3986408306901406	8.309285660014085	-1.7987087137746471
O	-1.8210491706901406	10.427747490014085	0.9065984452253529
O	-4.637054670690141	12.462213790014085	2.521246805225353
O	-3.3470105606901406	9.060385720014086	6.417314075225352
O	-3.113795230690141	6.679804530014085	3.4190501352253526
O	-6.50782902069014	6.2648661000140855	1.755448155225353
O	-7.2200890706901415	3.178624860014085	-0.37401863377464717
O	-9.899224750690141	3.8247355200140847	-2.981468634774647
O	-11.680565370690141	0.993744536014085	-4.828158064774647
O	-14.364229670690142	-4.868216779985914	-8.351576344774648
O	3.4897863993098595	-5.139225399985915	12.367885835225353
O	0.03250573130985934	-4.702406079985915	10.722225235225352
O	-1.0744128016901406	-1.358814779985915	9.205177335225352
O	-3.8605848806901406	0.10195602601408504	11.379546635225353
O	-7.22191671069014	0.787482097014085	9.723366235225352
O	-11.82326657069014	4.706873890014085	9.069082435225353
O	-13.855458870690141	3.1282723400140853	6.313721555225353
O	-12.644340370690141	3.765371710014085	0.951785525225353
O	-10.308070490690142	2.5047328800140853	3.6056477152253525
O	-8.15672806069014	4.932015170014085	5.557327205225352
O	-4.99971000069014	3.524538920014085	7.121562295225353
O	0.34908715530985934	6.486432090014085	6.546330595225353
O	3.614765509309859	4.656379400014085	6.723940195225352
O	6.28657738930986	7.128633910014085	5.531565945225353
O	9.39014641930986	4.911409210014085	5.045268635225352
O	8.088247679309859	3.548008870014085	1.687082915225353
O	7.8900071293098595	-0.02173198598591497	0.32411502522535296
O	10.62126952930986	-2.619323289985915	1.1014347452253528
O	10.611559429309859	-3.274770229985915	-2.6556906447746473
O	11.93380002930986	0.267722121014085	-3.435912304774647
O	14.887483329309859	-0.04271186098591495	-1.0183886669746471
O	-1.7217016606901407	-15.165021109985913	0.5346365252253528
O	0.11330456430985936	-12.143767109985914	-0.8931462785746471
O	3.5188200893098593	-11.870794709985915	0.8684031552253529
O	6.12815477930986	-9.930035609985914	-1.2468452017746472
O	8.418475289309859	-6.859043449985915	-0.7673876687746471
O	5.90997325930986	-4.674968269985915	-2.5683120347746473
O	3.4101405993098592	-5.226836179985915	0.33523484522535296
O	5.791134869309859	-4.482921269985915	3.1433662752253526
O	6.06897670930986	-0.840402459985915	4.269907675225353
O	8.94628402930986	0.481871813014085	6.467064365225353
O	7.986483279309859	2.823733860014085	9.312248335225352
O	7.812739349309858	-3.437422559985915	8.883898725225352
O	4.074491349309859	-2.829781109985915	8.470795695225352
O	2.216380579309859	-5.506322729985915	6.457826835225353
O	-0.38857317569014066	-4.033832229985915	4.274152905225352
O	-2.8863211206901407	-5.063781179985915	1.5633584952253532
O	-5.19947937069014	-7.6092694699859145	2.793036265225353
O	-6.98066297069014	-8.093374929985915	-0.511222260774647
O	-1.4125885746901408	-14.198624709985914	-5.306962174774648
O	1.7072088593098593	-13.065819709985915	-7.183537064774647
O	6.54351570930986	11.488121390014085	0.2879636752253528
O	7.584874479309859	6.763764160014086	-2.677990854774647
O	2.3804202693098593	8.321648890014085	-10.186929304774647
O	0.13138349330985932	10.165275380014085	-12.606907564774648
O	9.416049609309859	-3.8520257499859145	-11.516710764774647
O	6.488648589309859	-4.013123239985915	-9.129337214774647
O	4.652881899309859	-7.2606491099859145	-9.613241894774648
O	0.8467693493098594	-7.299450099985915	-9.903961364774647
O	-1.2531620346901406	-9.927828109985915	-8.176170384774647
