90

O	-0.36061360302941203	-2.6805960247764706	-1.857090248279412
O	-0.18817835602941202	-2.3337204647764707	-0.4534836522794119
O	-1.408632539029412	-3.3476808147764707	-0.23281733827941187
O	0.926268955970588	-3.3776872547764705	0.32855699672058813
O	1.745090345970588	-3.860515354776471	-0.6809233632794119
O	1.128767925970588	-5.072829254776471	-1.272269070279412
O	3.1489268959705883	-4.432432964776471	-0.5111736012794119
O	3.006491215970588	-4.81813532477647	0.8570806367205881
O	2.372189225970588	-6.13517320477647	0.7583137067205881
O	0.950242735970588	-5.7611807047764705	0.8383850667205881
O	0.556831335970588	-4.376638844776471	1.2452771167205883
O	-0.830382865429412	-0.9040370247764706	0.167847656720588
O	-0.851657560629412	0.3711523912235295	-0.31995806027941187
O	0.06644556797058798	0.7395972862235295	-1.210833176279412
O	0.658090045970588	-0.40482784877647054	-1.994231183279412
O	-1.512201273029412	1.3919485212235294	0.36999414672058806
O	-2.416418714029412	1.1126700942235295	1.354813436720588
O	-2.463925614029412	-0.14022752577647052	1.837466426720588
O	-1.707291026029412	-1.1511506547764705	1.235470306720588
O	-1.486189427029412	2.7211532652235295	-0.04242987727941194
O	-0.8349308572294121	2.9848760952235294	-1.164773211279412
O	-0.207945686029412	1.9634762652235294	-1.8254566902794118
O	-4.412970244029412	0.39123472292352945	-11.807953373279412
O	-3.384550224029412	-2.5066426447764707	-9.506938903279412
O	-0.615874346029412	-1.3423448447764705	-7.173545413279411
O	-0.11566391902941198	-4.634133214776471	-5.2742244732794115
O	-1.472192414029412	-8.06655246477647	-4.318391063279412
O	-1.9008069240294119	-10.60193383477647	-1.5926588382794118
O	-3.625129834029412	-13.895324534776469	-0.7324817162794119
O	-7.110104634029412	-12.38895323477647	-0.04330956527941188
O	-7.166284974029412	-10.03904933477647	-2.991069843279412
O	-5.516834604029412	-6.875894064776471	-4.266798943279412
O	-4.847937674029412	-3.1473449147764705	-3.761224973279412
O	-5.876631514029412	-0.7671186347764707	-6.597530953279412
O	-5.3549227640294115	2.9392473652235296	-7.217476163279412
O	-8.807583304029412	4.4890642252235295	-7.531136753279411
O	-6.991589164029412	6.62057016522353	-2.873215803279412
O	-5.665726804029412	3.0735429152235296	-2.538390713279412
O	-8.492831554029411	0.5260701268235295	-2.2750704432794118
O	-7.854118764029412	-2.8481697947764704	-0.6711950282794119
O	-10.244695804029412	-5.556024444776471	-1.894071113279412
O	-10.723412124029412	-8.855920184776469	0.04753352072058814
O	-1.047387033029412	8.95113825522353	14.239898826720589
O	3.0925573659705883	7.4129203352235296	10.691103826720589
O	-0.03343425702941205	5.204700735223529	10.257252126720589
O	-1.947727054029412	5.127044395223529	6.953794536720588
O	-5.396725764029412	6.75024107522353	7.240294736720589
O	-8.495829724029413	4.644816395223529	6.482113466720588
O	-13.852415384029413	4.658922985223529	3.8241165967205886
O	-13.328462384029413	-2.9442364847764706	0.707999066720588
O	-11.057007284029412	-0.5987162847764707	2.640527906720588
O	-10.188359494029413	2.7444379152235294	1.038427006720588
O	-7.016391774029412	4.38894336522353	2.361162256720588
O	-4.906652394029412	7.422216525223529	1.6207654467205883
O	-2.659140624029412	6.86683317522353	-1.4242584852794118
O	1.049836015970588	6.981563325223529	-0.3718079852794119
O	2.971785685970588	7.511691005223529	-3.624071903279412
O	6.6724790159705885	7.082095415223529	-2.687021953279412
O	6.715425385970588	3.2856350652235293	-2.904910543279412
O	7.5820995059705885	0.46097204182352947	-0.4462204052794119
O	10.734510015970587	0.8565870472235295	1.631830546720588
O	11.407393715970587	-2.7393379447764707	0.41831079672058813
O	11.968126415970588	-1.5378770747764707	-3.2043547932794123
O	14.316751015970587	1.2816046752235295	-2.2999822632794116
O	3.994757655970588	-7.79116823477647	10.978346326720589
O	6.835846935970588	-5.242401334776471	10.886661426720588
O	8.921290405970588	-5.592465964776471	7.661393656720588
O	10.140347315970587	-3.2504855747764707	4.881273216720588
O	7.308346835970588	-4.492011214776471	2.5374204967205882
O	4.744703545970588	-2.9155904947764704	4.916912676720588
O	6.307766185970588	0.5190415431235295	5.1752544167205885
O	5.555467795970588	3.0929456552235295	2.4628496367205877
O	7.438397095970589	6.3525169152235295	1.893699536720588
O	5.360263685970588	9.522045765223531	1.5533080967205881
O	7.150694945970588	6.371497995223529	6.763839116720589
O	3.548991945970588	5.211863595223529	6.7806762567205885
O	2.7825273959705883	1.8261733152235293	8.303963896720589
O	0.19098860997058797	-0.17948476377647055	6.464281056720588
O	-1.209647109029412	-3.7107551347764707	6.677436936720588
O	-2.897151534029412	-4.260824514776471	10.052926126720589
O	-3.985659304029412	-7.75704005477647	9.003731866720589
O	11.108345415970588	9.933151375223531	-3.777191533279412
O	1.6254226859705883	8.79539153522353	-10.602161283279411
O	2.424109375970588	5.109672845223529	-9.911702783279411
O	7.348047675970588	4.000849355223529	-7.679083663279411
O	5.360215725970588	0.7427704532235295	-7.770452183279412
O	5.7720896259705885	-2.4102944247764704	-9.879355823279411
O	0.8694267459705879	-6.35213412477647	-12.056157773279411
O	-1.746348050029412	-8.149579594776469	-14.163040173279411
O	8.649189005970587	-9.70020423477647	-1.2806477832794119
