26

O	1.1705518960952759	-3.3850514888763428	-0.4006243646144867
O	2.0230770111083984	-1.7819634675979614	0.205278217792511
O	3.117985725402832	-1.7559300661087036	-0.927257239818573
O	3.9531760215759277	-0.5237717628479004	-0.6557906270027161
O	5.0142669677734375	-0.43489688634872437	-1.6956448554992676
O	5.9478559494018555	-1.595413088798523	-1.7442028522491455
O	6.717445373535156	-1.842309832572937	-0.4782962203025818
O	1.0297842025756836	-0.7751297950744629	-0.39993366599082947
O	1.368423342704773	0.07387741655111313	-1.2422236204147339
O	-0.3209841549396515	-0.7890079617500305	-0.005925445817410946
O	-1.1817964315414429	0.28923892974853516	-0.710754930973053
O	-2.3820910453796387	0.218459814786911	0.42950740456581116
O	-2.863396406173706	-1.1602054834365845	0.400633841753006
O	-2.3230674266815186	-2.181817054748535	1.1687427759170532
O	-3.912060499191284	-1.4716355800628662	-0.42496660351753235
O	-2.8757786750793457	-3.4436841011047363	1.0508586168289185
O	-4.480329990386963	-2.7030715942382812	-0.5642632842063904
O	-3.9348325729370117	-3.721923351287842	0.2066398710012436
O	-0.4737306535243988	1.5413846969604492	-0.06711956113576889
O	0.4292261302471161	1.5333887338638306	0.7182140946388245
O	-0.9995954632759094	2.7350494861602783	-0.4974745810031891
O	-0.46756112575531006	4.094552040100098	-0.0007203256827779114
O	-1.8327763080596924	4.9207353591918945	-0.43442678451538086
O	-0.8238527774810791	4.040659427642822	1.5148818492889404
O	-0.5240377187728882	5.0841288566589355	2.3462929725646973
O	-1.375901222229004	3.034336805343628	1.9132403135299683
