26

O	34.131	43.301	-7.063
O	34.469	41.549	-6.538
O	35.101	40.696	-7.644
O	34.19	39.696	-8.271
O	33.801	38.64	-7.263
O	32.783	37.699	-7.871
O	32.412	36.623	-6.903
O	35.561	41.869	-5.523
O	36.645	42.319	-5.916
O	35.297	41.676	-4.237
O	36.313	42.02	-3.248
O	35.738	42.052	-1.83
O	36.605	42.796	-0.859
O	36.91	44.143	-1.076
O	37.172	42.147	0.234
O	37.774	44.83	-0.219
O	38.04	42.828	1.098
O	38.34	44.169	0.866
O	37.557	41.131	-3.289
O	38.688	41.634	-3.29
O	37.347	39.82	-3.324
O	38.445	38.86	-3.356
O	38.358	37.935	-2.149
O	38.434	38.057	-4.656
O	37.387	38.018	-5.334
O	39.486	37.504	-5.018
