20

O	-0.2893008588745821	52.228688508808744	164.00362551248483
O	1.027252938680752	52.73687366995209	163.83199799939035
O	2.031570609154261	52.429105162455066	164.7481622019896
O	3.209971884072759	53.06150803653325	164.65207410921465
O	1.725894243100718	51.324476648690116	165.52988604753747
O	0.4678481139176299	50.87318973298248	165.82685682207804
O	-0.13164426398415324	50.12588678882263	166.92469395590257
O	-1.5506447184384995	49.73457203379481	166.51663296222577
O	-2.143831857552023	50.98438572788886	166.1224909344052
O	-1.4113899512186028	52.16764479696429	166.22221738814264
O	-0.44987467994403113	51.6487994775474	165.17552386142293
O	-1.7551689370087922	53.48737539987766	165.77337082050235
O	-3.0847928620578715	53.603295271214556	165.22934655470266
O	-3.8854226905331974	52.37754254906692	164.96287586497908
O	-3.293233339713256	51.06386935954396	165.3022948209991
O	-4.3015057070284595	50.20762480462101	165.97492404265472
O	-5.422216308051087	51.088084407758814	166.21102846570784
O	-5.303871243823092	52.371800508706976	165.4241018817086
O	-6.242066446494378	52.48460002922774	164.41545022712762
O	-3.8689101061349525	52.44240994748665	163.46615704285784
