20

O	1.9743648767471313	1.555882215499878	-1.0850262641906738
O	3.225564956665039	1.297175407409668	-1.6154842376708984
O	4.053250789642334	0.29585587978363037	-1.147377371788025
O	5.320505619049072	0.06965802609920502	-1.7198249101638794
O	3.6113440990448	-0.4856884479522705	-0.09901820868253708
O	2.36430025100708	-0.24079090356826782	0.44228824973106384
O	1.7928282022476196	-1.0108250379562378	1.5512235164642334
O	0.4139409065246582	-1.469940185546875	1.3558390140533447
O	-0.3129003643989563	-0.6285356879234314	0.1807335913181305
O	0.22750622034072876	0.8855755925178528	0.6910021305084229
O	1.6034554243087769	0.7678954601287842	-0.07472573965787888
O	-0.5795279741287231	1.6882638931274414	-0.47670549154281616
O	-2.0231196880340576	1.7483834028244019	-0.005257064010947943
O	-2.488133668899536	0.36851924657821655	-0.028851361945271492
O	-1.7028032541275024	-0.4356665015220642	1.1559512615203857
O	-2.4247443675994873	-1.8072212934494019	0.6984622478485107
O	-3.8362295627593994	-1.4454147815704346	0.7753720879554749
O	-3.8345446586608887	0.2065364569425583	0.8972064256668091
O	-4.796026229858398	0.3553805947303772	-0.28247901797294617
O	-2.589031457901001	-0.39656463265419006	-1.2133288383483887
