83

O	0.9096017094238094	-2.338696374925397	-0.9138140476301586
O	0.10804412742380931	-2.840041754925397	-1.9755015326301586
O	-0.9862831585761906	-2.113847144925397	-2.4422150026301583
O	-1.8180719215761907	-2.691570174925397	-3.3209410326301585
O	-0.9412701685761906	-0.7772323649253969	-2.073203992630159
O	-0.2865637445761906	-0.2653123859253971	-0.9851649226301586
O	-0.4574696575761907	0.900604530074603	-0.1281187816301586
O	0.7765921394238093	1.022060371074603	0.7638135373698414
O	0.8807364794238093	-0.27720216892539706	1.3723560573698415
O	-0.07450936057619062	-1.256167524925397	1.0973092373698414
O	0.3762592094238093	-1.275898874925397	-0.3468852756301586
O	-0.09525376457619061	-2.637732914925397	1.4874154273698414
O	0.9829174394238094	-3.025347214925397	2.361830437369841
O	2.1147311294238094	-2.089468824925397	2.6018593873698412
O	2.0771520594238098	-0.7599707849253969	1.9517413373698413
O	2.4852489094238095	0.291706417074603	2.9159145573698417
O	2.5673153894238094	-0.394541276925397	4.184486927369842
O	2.5557041494238097	-1.8951382949253972	4.013431967369842
O	3.76086211942381	-2.492214814925397	4.331875097369841
O	3.174099759423809	-2.855988764925397	1.8705366373698415
O	-9.742059410576191	-8.403625784925397	-4.036096412630158
O	-8.41996089057619	-8.603700274925398	-0.4962444818301586
O	-4.3943309105761905	-8.273306124925398	10.320708067369841
O	-4.5902484405761905	-5.005697534925398	8.39030634736984
O	-0.9270054222761906	-5.4348712549253975	7.477061647369841
O	-1.3130474255761906	-9.094035714925397	6.586044967369841
O	-4.106029280576191	-8.076576444925397	4.229202817369842
O	-2.2456380705761907	-5.319941044925397	2.5870028873698416
O	0.8908026694238094	-7.445724444925396	2.172772137369841
O	-1.0116282615761907	-10.339658074925397	0.7207182273698414
O	-2.7102430705761904	-8.121619154925398	-1.7744896026301586
O	0.6086374094238094	-6.567215854925397	-2.9112999426301585
O	2.2581632494238093	-9.776923474925397	-3.4008630326301583
O	-0.6100041075761906	-10.943126174925398	-5.6096101126301585
O	-0.6151042185761907	-7.681650414925398	-7.573514102630158
O	3.1158632494238097	-7.932203384925398	-8.251199232630158
O	2.5894129094238094	-11.115712574925398	-10.241587802630159
O	2.4648798494238093	-6.1113237349253975	-12.51505333263016
O	9.48921217942381	1.142590652074603	-9.18640714263016
O	7.16395993942381	-1.6312338949253968	-7.990161652630158
O	5.949056549423809	0.275492358074603	-4.959830792630158
O	5.40960436942381	3.5853657550746028	-6.821489372630158
O	3.41311012942381	1.636754775074603	-9.396620252630159
O	1.2248670894238092	0.09418149407460297	-6.788919032630158
O	0.6810971494238094	3.524283095074603	-5.133974402630159
O	-0.34144343457619064	5.347846315074603	-8.269852352630158
O	-2.7544886605761905	2.536915135074603	-9.075383832630159
O	-4.15998723057619	2.690384575074603	-5.559627602630158
O	-4.551597860576191	6.506395205074602	-5.781881962630158
O	-9.484905600576191	5.952557195074602	-4.792650222630159
O	-8.275112510576191	4.373964395074603	0.02667010236984141
O	-9.80516726057619	1.646710025074603	-2.1427872026301586
O	-6.982790790576191	-0.9221631049253971	-1.7919188526301586
O	-9.52146875057619	-3.368628174925397	-3.1413543726301585
O	-13.93935312057619	-5.152899384925398	-0.7370964016301587
O	-11.43320372057619	-3.140152354925397	1.2585342873698413
O	-11.966103420576191	0.597084824974603	1.6659242773698415
O	-4.520731630576191	3.331842165074603	9.26164621736984
O	-3.880496080576191	0.707844286074603	14.137171367369842
O	-0.3467833585761907	0.47015050747460296	12.833564767369841
O	3.96331645942381	4.712520805074602	10.73807936736984
O	1.0056078694238093	3.8422839350746028	8.540224877369841
O	-1.1458483835761908	6.883642655074603	9.30919277736984
O	1.4017878894238092	9.284875315074602	7.811728937369842
O	1.5212838694238096	7.330557845074603	4.585950437369841
O	-2.2675529305761906	7.032016415074603	4.3296747173698416
O	-2.473736070576191	10.802766625074602	4.516079397369841
O	0.05963466842380938	11.340788725074603	1.7411216573698416
O	-1.7876808055761906	8.931004185074602	-0.5065682927301586
O	-5.15939693057619	10.525813735074603	0.2639562343698414
O	-5.867641980576191	11.237249625074602	-4.620032902630158
O	8.31272094942381	2.044204705074603	-14.63222833263016
O	5.76772104942381	8.125389905074602	-0.6912763926301586
O	7.49207329942381	4.966592085074604	-1.9173342326301586
O	10.63829937942381	5.850822195074603	0.03935207936984142
O	8.50776424942381	6.322018635074603	3.149004067369841
O	6.788427239423809	3.041090025074603	2.3846226173698417
O	10.07647707942381	1.2205227730746029	1.8094772773698413
O	11.25129137942381	2.4590992750746032	5.174836117369842
O	8.20199884942381	1.023760905074603	6.863445037369842
O	8.36172220942381	-2.223281564925397	4.897612627369842
O	12.07417187942381	-2.623630294925397	5.505939007369841
O	10.66782497942381	-8.088482884925398	7.419728307369842
