81

O	0.6904502283970587	3.5309459804705883	1.0661791181470581
O	0.17458720839705866	4.476472150470588	2.0722964081470585
O	1.915718978397059	3.1293889004705884	1.5855288881470582
O	2.341919658397059	1.7583696904705883	1.2351514981470582
O	1.662579768397059	0.8753220954705883	0.39851344314705817
O	2.0142839083970587	-0.3250763685294118	-0.20227299885294187
O	1.3820264783970586	-0.9849245095294117	-1.136939721852942
O	1.751022518397059	-2.246181169529412	-1.717446971852942
O	0.4789564183970586	-0.3613919005294117	-1.933652411852942
O	0.07791524139705863	0.8517154094705882	-1.4556637918529418
O	-0.8844018016029414	1.2082122114705882	-2.106561231852942
O	0.5908142683970586	1.3976088894705883	-0.27251135785294184
O	0.1561399513970586	2.412727390470588	0.6563326491470582
O	1.5044440683970586	-2.183803589529412	13.420486428147058
O	4.949195868397059	-0.8094620695294117	14.137403728147058
O	7.121164618397059	-0.9836360195294118	11.038481928147059
O	10.258110868397058	-3.141709639529412	11.066507328147058
O	5.063975918397059	-5.011265899529412	9.624092878147058
O	7.966485948397058	-6.1448690595294115	7.423249898147058
O	8.731500318397059	-5.627698399529412	3.758392408147058
O	2.4492769083970587	-8.769830639529411	8.063361888147059
O	4.747831808397058	-8.352607219529412	5.083556118147058
O	4.2652135683970585	-5.790566769529412	2.339634478147058
O	4.660772248397059	-7.127457709529412	-1.167955971852942
O	7.552362668397058	-4.988399079529412	-2.294226011852942
O	6.057562938397059	-3.0228002495294115	-5.196713411852942
O	5.753052208397059	0.19269955947058826	-3.186216571852942
O	9.393887368397058	0.2595056954705882	-2.0668023118529417
O	10.877069268397058	-0.5258521495294117	-5.484542401852941
O	9.268600138397058	2.4816453004705883	-7.186341501852942
O	11.943043968397058	3.3576914004705882	-2.4944308418529415
O	15.72672116839706	3.146731000470588	-2.9137546918529416
O	9.357139168397058	-5.022206429529412	-11.984054071852942
O	6.769321368397058	-11.611358119529411	-4.1651174018529415
O	4.5173130383970586	-14.293002319529412	-2.7407232618529416
O	0.9550483683970586	-11.88135201952941	2.9666925581470585
O	0.10735824439705866	-8.885213919529411	0.8049642141470582
O	-0.7792176046029413	-9.272859499529412	-2.848344201852942
O	1.737185868397059	-7.726608149529412	-5.2228091618529415
O	0.3545803383970586	-4.501947859529412	-6.644862371852942
O	1.2103381183970585	-1.2917121595294119	-8.455230071852942
O	0.6438422183970586	1.7406117504705882	-6.197867881852941
O	-0.3234125076029414	4.642040970470588	-8.560041511852942
O	1.2762463483970587	8.010563360470588	-7.888406071852942
O	-0.8552890366029413	10.997178680470588	-6.741734101852941
O	-2.0740949316029416	12.891358180470588	-8.521337081852941
O	-3.066387491602941	10.430631070470588	-11.252711271852942
O	-5.205285971602941	5.269619430470589	-12.475034071852942
O	-2.5992154316029414	0.7464437314705883	-12.787947171852942
O	-5.705519491602941	-0.5082631195294118	-11.039643471852942
O	-4.7831915516029415	-9.758938219529412	1.728301508147058
O	-5.789131211602942	-8.01665653952941	-1.472837071852942
O	-5.093785791602941	-4.311796189529412	-2.1856746118529418
O	-7.783041961602941	-2.020527179529412	-3.6054879918529417
O	-6.460739921602941	0.6738932724705882	-5.988249831852942
O	-8.179675451602941	3.3549984004705884	-8.119982401852942
O	-6.595842241602941	6.562464240470589	-6.888566441852942
O	-13.290746531602942	-3.8032154595294116	-4.785546491852942
O	-8.701893201602942	-6.079550369529412	2.091192428147058
O	-6.323701701602941	-3.175000409529412	2.1096206481470583
O	-7.071599411602941	0.29160297047058825	0.8466339211470582
O	-3.979098111602941	1.0598129884705882	-1.217425991852942
O	-2.960512981602941	4.247562630470588	-2.969892251852942
O	-3.5809606016029414	6.722431440470588	-0.11863038985294184
O	-1.2146348436029415	8.752283700470588	2.0483098081470583
O	0.7917561983970586	9.504071080470588	-1.075801451852942
O	0.4127681383970586	13.250094880470588	-1.0335811218529418
O	-3.315493321602941	13.957657280470588	-1.139398481852942
O	-15.119347331602942	-3.9573326995294114	0.6255389331470582
O	-6.2749830116029415	-2.2709667495294115	6.2459754681470585
O	-5.333434301602941	1.2944117784705882	5.444587788147058
O	-1.7550100416029415	1.0250792634705883	4.327509458147058
O	0.7689566983970587	3.620781770470588	5.3719777081470586
O	-1.5518974736029414	5.695719110470589	7.646400488147059
O	-0.8345747306029414	7.633986930470589	9.775980168147058
O	-5.667284081602941	10.22035896047059	10.603385128147059
O	-6.135797991602941	6.956089830470589	12.527020828147059
O	-10.092040151602943	6.289098350470589	9.451885208147058
O	-2.832746661602941	0.6568869304705882	10.299624828147058
O	0.9321813083970586	0.9861724424705882	9.807235348147058
O	3.2052797883970587	3.9462875204705883	9.439917908147057
