13

O	2.7398509979248047	-0.1459897756576538	-0.1516720950603485
O	1.6704108715057373	-1.0050004720687866	-0.09284946322441101
O	1.9065436124801636	-2.464916706085205	-0.10651635378599167
O	0.3769744634628296	-0.5387248992919922	-0.021081993356347084
O	-0.7111746072769165	-1.3271355628967285	0.038805313408374786
O	-1.97357976436615	-0.8620544672012329	0.10884984582662582
O	-3.0620663166046143	-1.7929786443710327	0.16869577765464783
O	-2.204583168029785	0.46035242080688477	0.122177854180336
O	-1.1668964624404907	1.3237241506576538	0.06511839479207993
O	-1.3875705003738403	2.580786943435669	0.07785139977931976
O	0.1186591237783432	0.8401077389717102	-0.006217333022505045
O	1.1939032077789307	1.6982795000076294	-0.06536028534173965
O	2.499528646469116	1.2335495948791504	-0.13780105113983154
