80

O	-0.053986443298507436	-3.389782933925373	-2.793582892552239
O	0.36881189070149256	-2.145574703925373	-2.912222172552239
O	1.1972987407014923	-2.336764433925373	-4.053464722552238
O	0.14009328070149252	-1.0517091939253727	-2.077847332552239
O	0.6860533907014925	0.21701001907462725	-2.060973182552239
O	0.21448067070149257	1.2161321860746273	-1.1908707745522389
O	0.7273943907014926	2.478358936074627	-0.7754429595522387
O	-1.0577784532985075	1.2776376630746273	-0.6531359925522388
O	-1.7470759562985074	0.11957213207462725	-0.7687336055522388
O	-2.8192515492985075	0.2202176500746273	-0.1684378533522388
O	-1.1480164912985074	-0.8090927839253728	-1.5643607325522388
O	-1.7129224932985074	-2.101484023925373	-1.4807578925522389
O	-1.1544304972985076	-3.2950261139253727	-2.0776155825522387
O	11.262446350701493	-7.350117933925373	0.6145590934477613
O	12.388971050701493	-7.589511523925373	-3.024063912552239
O	11.086818950701494	-4.6566943539253725	-5.061259832552238
O	13.495849950701492	-2.2065430239253727	-6.661784532552239
O	11.552081750701493	-1.6725569539253728	-1.2344534065522388
O	12.068812850701493	1.5244307760746274	-3.216934112552239
O	9.427081450701493	3.763848546074627	-4.838119342552239
O	11.439909450701492	0.8888478810746272	2.767545087447761
O	9.934441550701493	3.387892396074627	0.3411938144477612
O	6.309582850701493	3.427018426074627	-0.7076207905522388
O	4.538636110701493	6.773633326074628	-0.6703107195522388
O	3.7620421007014926	7.0468867560746276	-4.367696432552238
O	0.009782150701492576	7.399714206074628	-3.9201091825522387
O	-0.8444342892985075	3.9269870460746272	-5.090364512552238
O	1.5351455307014927	4.0658064060746275	-8.088241512552239
O	0.11115977070149263	7.376989616074628	-9.341667082552238
O	-3.3868914992985077	5.845744896074628	-9.48612902255224
O	-2.0715683992985072	2.8008363160746272	-11.369889002552238
O	0.6043839307014924	4.023367696074628	-13.794841502552238
O	-2.8135896192985075	14.314794216074626	-6.445346792552239
O	5.622054910701492	12.427100016074627	-0.3502657885522388
O	7.303015970701493	12.500083116074627	3.040532127447761
O	8.799770680701492	5.853699866074628	5.365954287447762
O	5.227347100701492	4.966317506074628	4.352355887447762
O	2.3977624207014925	7.391466816074628	4.984800937447762
O	0.8273462807014926	8.872800406074626	1.863679867447761
O	-2.4197073292985074	7.038346646074627	1.2567905574477611
O	-5.115707149298507	6.307943566074628	-1.2468278625522389
O	-5.465658369298507	2.631323156074627	-2.178289412552239
O	-9.247829429298507	2.094550786074627	-2.621376552552239
O	-10.100173019298508	0.29309502907462726	-5.9103213725522386
O	-11.674399349298508	-3.176728343925373	-5.675325552552239
O	-14.517193649298507	-3.764622093925373	-5.549608352552238
O	-14.614119249298508	2.853563406074627	0.7226964574477612
O	-11.307882249298506	6.991733136074628	0.7145326684477612
O	-10.412469669298508	5.5379802460746275	4.101759407447761
O	7.170236380701493	5.926832336074628	9.865475797447761
O	4.476861240701493	3.325260746074627	9.043586597447762
O	0.7511758507014925	4.088310876074627	8.807169377447762
O	-1.4939208322985076	2.3160895260746273	6.238986477447762
O	-4.872857439298508	0.8356916030746273	7.203943077447762
O	-7.578395489298507	1.1279579370746273	4.554907427447762
O	-11.318325249298507	0.3655620300746273	4.485760317447761
O	-11.646584549298508	-2.151199463925373	1.648290307447761
O	-6.999683769298508	0.9654501090746272	12.75154849744776
O	1.1400172407014926	-0.5638494439253727	10.582239597447762
O	0.5512656207014925	-1.7985461639253726	7.114929667447761
O	-2.6260769192985074	-3.450681513925373	5.8778712774477615
O	-3.3080861192985074	-1.6426831739253729	2.561890547447761
O	-6.165513469298507	-2.034526023925373	0.0742476674477612
O	-5.625257139298507	-5.835777273925372	-0.4874573935522388
O	-3.763907369298508	-7.563744603925373	-3.454364442552239
O	-5.960999199298508	-5.421603653925373	-5.739289542552238
O	-8.086811189298508	-7.992531133925373	-7.394789292552239
O	-9.705488469298507	-9.900415683925374	-4.538588852552238
O	-3.5717378892985074	-3.203607833925373	14.857111697447762
O	3.0379947407014924	-5.072336753925373	6.879143527447762
O	0.8591358007014926	-6.607145453925373	4.159689687447761
O	1.6255402907014924	-4.531093453925372	1.092459607447761
O	1.9442264607014927	-6.119953723925373	-2.3764409925522387
O	1.3244091707014924	-9.580153783925374	-1.1336692275522389
O	3.850184550701493	-12.169721483925374	-2.1952560625522386
O	-0.42873622329850747	-16.122018683925372	0.1800044514477612
O	2.5488114907014925	-15.372026283925374	2.419067007447761
O	5.7731670807014925	-8.556854983925373	2.686113497447761
O	6.690952120701493	-7.159388013925373	-0.7273250085522388
O	5.695583380701493	-8.011324553925373	-4.312808902552239
