17

O	20.826	14.501	57.568
O	20.881	13.044	57.519
O	22.208	12.374	57.497
O	22.24	11.02	57.493
O	19.725	12.25	57.604
O	23.21	13.116	57.486
O	19.79	10.89	57.622
O	21.116	10.223	57.534
O	21.184	8.98	57.486
O	18.291	12.757	57.612
O	17.44	11.464	57.699
O	18.425	10.259	57.634
O	21.145	15.039	58.995
O	21.524	16.544	58.835
O	22.471	16.85	58.064
O	20.851	17.36	59.543
O	20.03	14.718	59.958
