85

O	-0.6824086945602942	1.4588475407352939	0.02650295252941201
O	-0.5492950954602942	0.19041956973529395	0.686652721529412
O	-1.0978936624602942	-0.15235874626470602	1.8412779295294122
O	-0.7569631770602943	-1.3172758022647062	2.4592448495294117
O	0.1576338815397058	-0.7634553022647059	0.044484482529412034
O	-1.817933472460294	0.673110313735294	2.432386049529412
O	0.3387706375397058	-2.060199562264706	0.643188437529412
O	0.029489811539705757	-2.257625082264706	1.953537099529412
O	0.22362189253970577	-3.3770202022647062	2.452163379529412
O	0.7678870975397057	-0.996235032264706	-1.2726005704705878
O	0.8272796375397057	-2.441658902264706	-1.5501806004705878
O	1.0547577375397057	-3.004294682264706	-0.20473876617058795
O	0.33401289753970576	2.388823947735294	0.679994806529412
O	-0.2241807964602942	3.732215577735294	0.573374614529412
O	0.0493900465397058	4.430853187735294	-0.403728980470588
O	-1.5123239484602942	3.975709937735294	0.842511719529412
O	1.6072294275397057	2.4107773477352943	-0.0030711664705879715
O	1.3950066675397057	6.050619637735294	-10.863204100470588
O	-0.28886784446029423	2.724873917735294	-10.143045590470587
O	-0.0622650694602942	-0.8386240922647059	-11.433313100470588
O	1.6744736575397057	-2.535955242264706	-8.530167260470588
O	4.382855457539706	-5.179938972264706	-8.985067530470587
O	6.922544277539705	-0.800636232264706	-9.093053570470587
O	-2.132766492460294	5.016595617735294	-14.388135900470587
O	-4.358124592460294	6.523521107735294	-11.699049900470587
O	-7.991833112460294	6.346231777735294	-12.812815500470588
O	-9.457224852460294	4.715017447735294	-9.687086400470587
O	-6.473961582460294	2.4639552777352938	-9.025321800470588
O	-6.178476302460294	3.847488147735294	-5.480042760470588
O	-3.383481832460294	5.364268107735294	-3.4008325104705883
O	-5.103401442460294	8.184862227735294	-1.580198370470588
O	-7.739483832460294	8.619843417735293	1.110205339529412
O	-6.3918961024602945	7.898926957735294	-5.664684650470588
O	-3.0690456224602944	9.425550307735293	-6.659206130470587
O	5.7930554575397055	8.294284417735295	-8.462450730470588
O	4.635396317539706	5.107028137735294	-6.7344491704705876
O	4.918968867539705	3.148458797735294	-3.466294340470588
O	3.114044847539706	6.045517127735294	-1.790400560470588
O	3.499071377539706	6.215399927735294	1.9848358395294123
O	4.409420007539706	9.518702017735293	3.665520589529412
O	1.6770559975397057	10.186982177735295	6.219267929529412
O	0.6161086575397058	13.169934987735292	8.286587929529412
O	12.403732767539706	3.623655447735294	0.23736253752941203
O	9.602889167539706	0.04816099673529395	5.128324899529412
O	7.050725197539705	-1.017076292264706	7.705765649529412
O	3.8706856275397055	-3.065523742264706	8.061085409529412
O	4.6929821575397055	-6.790314322264706	8.109498949529412
O	-6.790246262460294	-8.445565002264708	7.088711269529412
O	-5.222810112460294	-5.679831102264706	5.043669409529413
O	-5.846452482460294	-3.8466402822647057	1.8077873395294122
O	-9.146515812460294	-2.0832416022647062	2.139740499529412
O	-8.042345052460293	1.505125497735294	1.486200969529412
O	-4.428917322460294	2.4981188377352943	2.1201333495294117
O	-1.971742082460294	3.649945297735294	4.775472079529412
O	-1.8078394924602943	0.13005371873529403	6.235780489529413
O	-5.5325611424602945	-0.04472501026470599	6.879049339529413
O	-5.385307032460294	3.463713877735294	8.361203939529412
O	-2.5857876124602943	2.452749227735294	10.723381699529412
O	-10.973127132460295	-9.778179612264704	5.667600209529413
O	-10.003793462460294	-6.805097272264706	3.510233739529412
O	-8.956974452460294	-7.070547302264706	-0.12597542947058799
O	-8.967056162460294	-4.618834852264706	-3.033192110470588
O	-5.3878912124602945	-5.172313122264706	-4.192848670470588
O	-2.1313650924602943	-6.771810852264706	-3.139538690470588
O	-2.4967577924602944	-9.547485012264705	-5.6949384504705876
O	-5.817019322460294	-10.400769612264707	-4.010139720470588
O	-4.290876162460294	-10.523546812264705	-0.5410380624705879
O	-1.4607667994602942	-12.705159312264705	-1.8252182804705879
O	-1.9631082924602943	-10.830734612264706	5.1572298095294125
O	-0.7404017991602942	-7.635472682264706	6.802646699529412
O	1.1618528975397058	-5.685493782264706	4.207533949529412
O	4.203978307539706	-3.447144942264706	3.770862509529412
O	7.477563827539706	-5.274125572264706	4.269663439529412
O	9.118291727539706	-4.498784552264706	0.9101383895294121
O	6.1215921475397055	-5.969008762264706	-0.908569524470588
O	6.111466267539706	-8.902230692264705	1.5181549595294122
O	9.201838107539706	-9.259782912264708	-3.087671500470588
O	7.767724207539706	-4.698109152264706	11.269654999529413
O	4.897484197539706	-3.196586282264706	13.271865399529412
O	6.090987527539705	0.295671939735294	12.354693099529412
O	7.584024467539706	4.575781217735294	7.447438579529412
O	8.903351217539706	5.444723367735294	4.013480389529413
O	7.640180537539706	5.987704617735294	0.469209077529412
O	8.028796647539705	9.421415027735293	-1.010108619470588
O	7.6123421775397055	11.154408987735295	-4.3419317704705875
