17

O	1.089295506477356	-1.518136978149414	0.3805112838745117
O	0.02626461163163185	-0.5787429213523865	0.45606565475463867
O	0.01748804561793804	0.3811383843421936	1.3888037204742432
O	-0.991587221622467	1.3032845258712769	1.4358404874801636
O	-0.9970816969871521	-0.6220687627792358	-0.4516523778438568
O	0.9241014122962952	0.49751317501068115	2.27829909324646
O	-2.0142457485198975	0.30423852801322937	-0.4064224362373352
O	-1.9958581924438477	1.2674673795700073	0.5505967736244202
O	-2.9155361652374268	2.1411328315734863	0.6258894205093384
O	-1.2377935647964478	-1.5632133483886719	-1.5750830173492432
O	-2.2414612770080566	-0.8307511210441589	-2.4342918395996094
O	-2.997936248779297	0.05135149508714676	-1.4854315519332886
O	2.1763687133789062	-1.0556933879852295	-0.7178218364715576
O	2.574955463409424	0.30543336272239685	-0.09947136044502258
O	1.7706996202468872	1.330346941947937	-0.5102209448814392
O	3.488165855407715	0.5203601717948914	0.6697369813919067
O	3.3241610527038574	-1.9336601495742798	-0.10534811019897461
