67

O	1.9372809607241392	-1.338533593637931	2.8552118092637935
O	2.189819370724139	-2.609523023637931	3.007277429263793
O	3.371590870724139	-3.192813023637931	3.1944554492637933
O	4.1330810307241395	-2.311119403637931	3.8741632492637934
O	4.23873693072414	-1.2145498036379312	3.0850671892637935
O	3.086558400724139	-0.658417772637931	2.7101052092637934
O	0.9090616407241391	-0.9327838736379309	1.9227384992637933
O	-0.25138433727586085	-1.725232723637931	1.7618432392637933
O	-0.6375965372758609	-2.6959451136379307	2.7345853692637934
O	-0.47134400727586084	-7.0195212336379305	-6.104044220736206
O	-3.086177809275861	-7.4890036936379305	-8.738026380736207
O	-1.832122529275861	-4.637524013637931	-10.861919590736207
O	10.87474294072414	2.795954106362069	-1.0087064607362066
O	8.99002091072414	4.858488116362069	-3.4928069207362067
O	7.739899180724139	9.97577559636207	0.7239919222637934
O	6.674619990724139	8.154753066362069	3.8827982192637935
O	8.34501803072414	8.97216512636207	7.202059219263794
O	8.68669559072414	5.216809326362069	7.816653679263794
O	11.05007124072414	5.276493346362069	4.8006023392637935
O	2.176745260724139	5.714516796362069	11.684872809263792
O	-1.047712658275861	3.641091366362069	-7.103123800736206
O	2.420212790724139	2.597399506362069	-8.338383430736208
O	5.630020950724139	0.964058664362069	-7.193375080736206
O	8.27391659072414	-1.7125523736379311	-7.323140730736206
O	6.94554517072414	-3.682025763637931	-4.325898150736206
O	6.074021000724139	-7.320818443637931	-3.977305220736207
O	3.532976870724139	-8.624372013637931	-6.436541250736206
O	-0.16171085927586082	-11.73523127363793	-1.5509009307362067
O	3.7029740207241386	-1.7504214236379312	-11.511283690736207
O	-13.80012385927586	6.33065889636207	6.142079709263793
O	-11.479774959275861	1.874976576362069	6.683088619263794
O	-5.860602659275861	2.597201316362069	14.274662009263793
O	-7.42633787927586	6.856270636362069	4.330615959263794
O	-7.980290649275861	3.4659734763620693	2.8493534892637933
O	-8.042188479275861	2.623914296362069	-0.8513260507362066
O	-8.459153379275861	-0.6396313046379309	-2.677306300736207
O	-10.882675359275861	-3.515424433637931	-2.6569156007362067
O	-8.82258189927586	-8.538331143637931	-1.6878812407362065
O	-6.51933876927586	-9.381663273637932	-4.596826710736206
O	-5.47755768927586	-5.818963973637931	-5.419767890736206
O	-3.282178679275861	-3.711740983637931	-3.1206971907362067
O	0.028292006724139118	-2.065076433637931	-2.4877082807362068
O	2.6467918907241392	-4.186597983637931	-0.7031221507362067
O	6.129712210724139	-4.260314783637931	0.7769939232637934
O	8.48522662072414	-2.078435033637931	-1.2191300307362067
O	5.722659390724139	0.203058925362069	-2.459687950736207
O	6.000363120724139	2.1135229363620693	0.8763994462637934
O	6.37507498072414	5.897980726362069	0.2749030182637934
O	5.08386271072414	5.916023636362069	-3.261193330736207
O	2.203376460724139	7.815999736362069	-4.807689840736206
O	-1.8612930192758608	9.663265946362069	-0.7687022807362067
O	1.4039967907241389	8.051500196362069	0.16104352626379337
O	1.665707860724139	4.355292106362069	0.5203024439637933
O	1.830753070724139	3.7992820963620693	4.352313399263793
O	0.7276051107241391	0.533279773362069	5.897039669263794
O	-1.667853024275861	-2.290264203637931	6.021412559263794
O	-2.2910095492758606	-5.768083343637931	7.330000919263794
O	-0.5099300292758608	-8.01092388363793	4.888882589263794
O	-1.315007515275861	-7.2873816336379305	1.2196639672637934
O	-4.417887959275861	-7.8667042636379305	-0.8679262907362066
O	-6.2165032792758605	-9.764654543637931	1.8409818392637933
O	-7.68691420927586	-5.444060643637931	4.892857799263794
O	-7.2104985792758605	-2.640011183637931	2.3634772792637935
O	-4.167013199275861	-0.4489847056379311	2.1257191392637935
O	-3.820895219275861	2.594477566362069	4.372010859263794
O	-2.407920659275861	5.768077636362069	2.9208106492637933
O	-1.2163043992758609	9.06045648636207	4.325745999263794
