79

O	0.997502369877586	1.3387218661172415	-2.0339663201724143
O	1.617084909877586	1.5366379461172417	0.2138640948275858
O	3.9502330198775857	0.5632375291172416	-0.03489382947241419
O	1.754476609877586	0.6126057151172416	-0.9982265201724141
O	3.230355169877586	0.6435437541172415	-1.288276910172414
O	3.903758369877586	-0.02791385688275838	-2.0852431101724145
O	0.373093263877586	0.2918887641172415	3.3193235098275857
O	1.702062249877586	-1.3192514708827585	0.9505497688275858
O	1.197167649877586	-0.6372283908827584	3.0432330598275854
O	-0.06084464212241397	2.5375784091172418	3.0873619798275858
O	3.020598439877586	-1.8537373908827584	0.7850167478275858
O	1.786265359877586	-0.26507051088275835	1.878804899827586
O	1.343842599877586	0.9802799941172415	1.5219700998275858
O	0.42298059287758605	1.3418859211172416	2.4566224698275856
O	-0.358993991122414	2.3781140291172416	4.647974879827586
O	-1.371825640122414	3.1290787091172416	2.8070540498275856
O	0.985864259877586	3.4960912191172415	3.2775149498275855
O	3.127366129877586	-2.7592813008827584	-0.7117977271724142
O	2.374072459877586	-2.4584462708827584	-1.9240004001724142
O	2.448806979877586	-4.197701320882758	-0.29449370217241416
O	4.722408679877586	-3.0657763808827583	-1.068115390172414
O	6.421140789877586	12.16165475911724	-2.6202371401724145
O	6.352920739877586	10.63504371911724	0.8254243718275858
O	1.829831559877586	9.061091199117241	4.504088209827586
O	-1.537983410122414	9.64109180911724	6.197620449827586
O	-3.806901510122414	10.950180559117241	4.679523209827586
O	-2.069100940122414	11.339297959117241	1.3137485598275858
O	-2.1326452901224138	13.83440055911724	-2.889568880172414
O	15.161725119877588	7.295194999117242	1.877615589827586
O	11.432045219877587	7.511836689117242	2.5105535998275856
O	10.751412519877587	4.445631019117242	0.32379682582758584
O	8.204376979877587	4.017349519117241	-2.4885268101724143
O	10.407104019877586	2.0339834991172414	-4.826143350172414
O	11.833618919877587	-1.4657717108827581	-4.844334760172414
O	12.636501619877587	5.377868199117242	-3.280730810172414
O	2.484055439877586	11.929659959117242	-6.726695790172414
O	1.721216809877586	9.46224499911724	-4.000102440172414
O	-0.10634712802241397	6.1396184791172415	-3.4307070001724145
O	2.328983919877586	4.447941549117242	-5.743826440172414
O	1.062558899877586	1.0319797071172416	-6.879905440172414
O	1.215534639877586	0.3697181361172416	-10.595682870172414
O	3.124516629877586	-2.9074895208827582	-10.854701370172414
O	4.830356289877586	-5.063564490882758	-13.429416170172415
O	-7.858903720122414	-1.0283412508827583	-4.585923880172414
O	-6.509273770122414	-4.356369980882758	-3.4001012801724144
O	-5.716501170122414	-6.581081610882758	-0.4465851731724142
O	-8.443274110122413	-6.929457790882759	2.1490449798275857
O	0.141780145877586	-9.999854440882759	7.273508799827586
O	3.323147659877586	-7.979751000882758	7.576535089827586
O	6.311635219877586	-10.28628744088276	7.349732079827586
O	7.8637079098775855	-10.306917040882759	3.8622621598275857
O	5.501472339877586	-7.846685210882758	2.4106708098275855
O	3.658506899877586	-8.01730928088276	-0.9520799751724142
O	0.513485411877586	-9.27284174088276	0.9266692198275858
O	2.383707909877586	-12.17142274088276	2.4685456898275855
O	2.911990689877586	-12.551320040882759	10.628429429827586
O	4.622722339877586	-3.7963248608827582	10.357231629827584
O	1.051056529877586	-2.5983319508827583	9.811865369827585
O	0.926439679877586	-0.5868317108827584	13.047727929827586
O	1.8078127298775861	-3.6535642508827584	15.076854629827585
O	-4.498825770122414	-8.66451883088276	5.7119986998275865
O	-3.256217100122414	-5.425429880882758	4.141611289827586
O	-3.832450220122414	-2.7655030208827585	1.4863586798275858
O	-7.587136460122414	-1.8520864008827584	1.4866072098275858
O	-7.071462880122414	1.8966087791172415	1.4020807898275858
O	-5.466567530122414	1.6993328781172417	4.837499209827586
O	-8.323439600122413	-0.5171788108827585	6.074298339827586
O	-10.890194880122413	2.0690062491172414	4.970294689827586
O	-8.911074160122412	4.796483989117242	6.726091969827586
O	-10.964242480122413	-6.967487450882758	-2.3500864001724144
O	-8.829456020122413	-10.10140714088276	-2.5735284301724146
O	-6.719741890122414	-8.88028771088276	-5.496263230172414
O	-6.714671770122414	-5.812059910882758	-7.724943960172414
O	-4.275249200122414	-2.9861118008827585	-8.376054170172415
O	-4.253307200122414	0.7836900263172416	-8.733775270172416
O	-2.267956160122414	3.868686829117242	-7.793653540172414
O	-0.852046133122414	6.007600509117242	-10.554406970172415
O	1.167064899877586	9.21102246911724	-10.890472870172415
O	-11.087459980122413	9.353369979117241	4.480164909827586
