21

O	41.839	5.001	5.184
O	39.493	5.886	5.57
O	41.075	4.678	2.658
O	40.337	4.754	4.978
O	40.071	4.589	3.429
O	38.891	4.377	3.065
O	39.448	6.239	9.271
O	38.038	3.884	7.156
O	38.686	5.062	9.089
O	40.675	8.016	8.2
O	37.282	2.937	7.981
O	38.671	4.891	7.788
O	39.392	5.897	7.066
O	39.857	6.727	8.067
O	39.751	9.091	8.821
O	41.867	7.795	9.126
O	41.181	8.556	6.869
O	36.272	1.912	6.882
O	37.159	1.179	5.941
O	35.475	1.047	7.82
O	35.295	2.894	6.153
