21

O	-2.5342345237731934	-1.2354662418365479	2.8607542514801025
O	-1.0143996477127075	0.0798942819237709	1.5761196613311768
O	-2.485382318496704	-1.1175196170806885	-0.8405980467796326
O	-1.9121026992797852	-1.1169177293777466	1.5608177185058594
O	-2.908735990524292	-1.1572047472000122	0.48564615845680237
O	-4.152407169342041	-1.2273540496826172	0.6725396513938904
O	0.38589680194854736	1.2399314641952515	-1.4980844259262085
O	1.2837029695510864	-1.5507277250289917	0.4281424283981323
O	1.1131069660186768	0.21093349158763885	-1.2858891487121582
O	-1.5282074213027954	2.507331371307373	-0.4712108075618744
O	2.348310708999634	-2.2920751571655273	-0.09206762164831161
O	0.7579065561294556	-0.41470274329185486	-0.15355966985225677
O	-0.3056497573852539	0.36305761337280273	0.33181655406951904
O	-0.5269699096679688	1.4108442068099976	-0.5361728072166443
O	-2.9451866149902344	2.055096387863159	-0.46906301379203796
O	-1.2954930067062378	3.50129771232605	-1.6144986152648926
O	-1.3226237297058105	3.327544689178467	0.8108171820640564
O	3.877955198287964	-1.3532949686050415	-0.22493648529052734
O	4.806663990020752	-2.1339540481567383	-1.1561757326126099
O	3.6944754123687744	0.20988042652606964	-0.7629346251487732
O	4.663373947143555	-1.3065944910049438	1.2730482816696167
