64

O	1.8371396620930236	2.8024997284651167	-1.9788991312000004
O	2.039659502093024	2.1595970114651166	-0.7994939862000003
O	1.1133181820930238	2.0149455640651164	0.05206447079999954
O	3.2795753520930235	1.7644999564651167	-0.4212348862000004
O	4.268411562093023	1.9561867614651165	-1.2950718062000004
O	5.417586702093024	1.5742512514651166	-0.9138250572000004
O	4.071355852093023	2.5187192384651165	-2.5274576392000005
O	2.857621292093024	3.0739792594651165	-2.8282958892000005
O	1.0475771720930238	5.567855130465117	-5.5254069692000005
O	-0.2624610409069763	5.358676920465117	-5.1319808592000005
O	-0.4423456439069763	4.467911090465117	-3.9737585592
O	0.4769180990930237	4.492602040465117	-2.9718459992
O	-1.0551208089069763	3.1139367604651165	-4.1800634792
O	-2.3825173879069763	3.2906135904651164	-3.8958206492
O	-0.2518035882069763	2.2886084744651165	-3.2113176692000005
O	-1.2529872749069764	1.8678241904651167	-2.3629111492000003
O	0.5407571560930238	3.2728892204651165	-2.3532421192000004
O	-4.075211087906976	1.0998031444651166	-3.3878173992000002
O	-3.6300454579069763	2.3790647944651164	-4.3720654192
O	-4.9084738479069765	3.2017809004651165	-4.5072429092
O	-3.482559437906976	1.7116834984651166	-5.9030852292
O	-10.291282687906977	-1.9788457195348834	0.15631643079999957
O	-6.840589567906977	-3.583002479534884	0.08497667079999971
O	-7.4702099579069765	-5.006324339534883	3.5425590207999997
O	-8.734412177906977	-1.6386325695348836	4.8102587408
O	-5.823662387906976	0.2563268504651166	3.3678641208
O	-2.9344471579069764	-2.209834239534884	3.9033380008
O	-3.593507897906976	-4.857393159534883	6.4840493308
O	-7.449256377906977	7.465471830465116	4.4328435908
O	-11.369193087906977	13.353509130465117	1.3533974907999997
O	-7.731063297906977	14.449875830465116	1.5069895007999998
O	-4.403828657906977	13.249164130465116	2.8907970408
O	-3.3186975079069763	10.062761440465117	1.1722726207999996
O	0.36087280709302366	10.819306400465116	0.35818442079999957
O	1.9462344320930236	7.371701000465116	0.8594015307999996
O	0.48859040409302373	4.205528360465117	2.349651680799999
O	1.8701134220930236	0.9287032904651167	3.6060581608
O	0.4529848090930237	-1.3390047295348833	6.3633899708
O	5.2355093720930235	-0.22836900953488337	-11.7456682992
O	2.5289017620930236	0.7349598704651166	-14.2459440992
O	2.3375240720930237	-8.167035069534883	-9.4729080792
O	3.9004711620930235	-10.543680469534884	-6.9811368192000005
O	5.586051772093024	-3.376601369534883	7.3341878008000005
O	5.065976622093023	0.2503125104651167	8.2252755008
O	5.346583152093023	3.0398531504651167	5.6739273807999995
O	3.305679382093024	6.180233640465117	6.2378949908
O	4.477637772093023	9.291146220465116	4.393027400799999
O	2.828495492093024	12.687634530465116	4.6754658808
O	8.730546372093023	4.138109540465116	9.2738146008
O	8.951908802093023	0.5144274404651166	10.3819435008
O	6.267148382093024	-6.640710259534885	-0.38005200720000043
O	4.951225612093023	-6.380026429534883	-3.9343532892000006
O	1.2051889420930237	-6.476946989534884	-4.5445132992
O	-1.0471475869069764	-6.672719419534884	-7.5801265092
O	-3.5793416379069765	-9.514283569534884	-7.5550836592
O	-6.711956007906977	-10.271530969534885	-9.5082426792
O	-4.378645297906977	-8.726042969534884	-3.4578361592
O	-6.126648747906977	-5.598062369534883	-4.717242129200001
O	-3.219392507906976	-3.1017267995348834	-4.771829519200001
O	0.04791210709302368	-2.5547335895348833	-2.8595799092000007
O	2.764075312093024	-1.7793119295348836	-5.4319807792
O	6.008992732093024	-1.5225113495348834	-3.5823918992
O	8.374751242093023	-2.898834219534883	-0.9832372516000004
O	11.989906612093023	-3.9328611495348835	-1.6857589932000003
