97

O	2.472704742285715	-0.003910436857142763	-5.755871950233766
O	1.850968932285715	-0.9919814068571429	-4.445419290233766
O	2.282370702285715	-0.34658877685714273	-2.8795250602337665
O	1.6811157722857148	0.9509700731428572	-2.664454440233766
O	0.7047653822857147	1.7630217691428571	-2.262377390233766
O	2.2273637022857145	1.4269748881428572	-0.6094979247337663
O	2.979051392285715	2.421094013142857	-0.08065000123376631
O	2.7712467322857153	1.7783360131428572	-2.0525918602337665
O	3.9955066922857148	1.2529213298428572	-1.9472995202337662
O	0.8580643622857149	1.3086719220428573	-0.8538341502337663
O	-0.23796478471428517	0.4759364551428572	-0.7541872882337662
O	-1.5001548467142851	0.8659630911428572	-1.1624367562337663
O	-2.353947637714285	-0.10915599685714272	-0.8845026052337663
O	-1.8103818667142852	-0.7719312468571429	0.10208292376623374
O	-2.4891719877142853	-1.5887114868571428	0.9367849697662338
O	-3.836289737714285	-1.9179450868571426	0.9669720597662337
O	-1.7271681987142853	-2.1947495068571428	1.8135629397662336
O	-0.4778029277142852	-1.771291346857143	1.9012701897662339
O	0.2090433722857148	-1.105972966857143	0.9741024197662338
O	-0.46502096871428517	-0.6585200268571427	-0.07617178723376627
O	5.1748706822857145	9.360413213142857	-3.2176459402337665
O	6.121801362285715	5.648411263142857	-3.5054524902337665
O	4.655343112285714	4.721854023142857	-6.945101300233766
O	4.6393046322857145	6.513304113142857	-10.316980980233765
O	0.8187409922857147	6.541288223142857	-10.408144760233766
O	0.8838788622857148	8.330889113142858	-7.0572639002337665
O	10.676250892285715	6.634266873142857	-3.7173121902337662
O	9.721566892285715	3.1421189931428573	-4.757464690233766
O	7.938201152285715	0.6997523591428572	-2.4676638602337664
O	8.742864182285716	-0.3386216068571428	1.1264918397662338
O	10.567698692285715	1.0066637311428572	4.179599349766234
O	11.286401692285715	5.202155093142857	1.3495372097662337
O	3.8883498822857145	11.822210823142857	2.3033919297662333
O	1.1131907322857149	11.231258803142858	-0.29200073623376627
O	-0.37850080171428513	8.154162943142858	-1.9105108502337662
O	-2.636197197714285	5.150046313142857	-1.1524846652337661
O	-3.376147117714285	3.1392016931428572	1.9705351397662338
O	-5.547907237714285	0.3541794351428572	3.4346524897662336
O	-8.306808067714284	1.7974553501428572	5.511463429766234
O	-8.804959847714285	0.29744219714285725	8.958899539766234
O	-8.474512557714284	10.800523203142857	3.2474748997662335
O	-6.324086317714285	9.668554243142857	6.157799329766234
O	6.150082472285715	-5.208681406857143	11.947267219766234
O	3.6428794622857144	0.7656468811428572	8.078550229766234
O	5.306878682285714	-2.546733466857143	7.319933219766234
O	7.048099022285714	-4.313340696857143	4.406049129766234
O	4.005902052285714	-6.476678556857143	3.688772489766234
O	0.8752196222857149	-5.888505316857143	1.5995537197662337
O	-2.0276227377142853	-6.550000926857143	4.028630749766234
O	-4.544079447714285	-8.946177576857142	2.388751009766234
O	-4.727488887714285	-8.038730606857142	9.106088699766234
O	-2.4325221977142855	-5.489930996857143	13.100837319766233
O	-4.730546677714285	2.8756058831428573	8.054597039766234
O	-1.8376601247142852	0.6576930901428573	6.919053049766234
O	0.5164043822857147	0.9961990271428571	3.8732387897662344
O	4.312824382285714	0.5927503891428572	3.456630699766234
O	6.452411982285715	3.886793813142857	3.609368029766234
O	4.969600122285715	6.374978563142857	6.1019136297662335
O	10.101781592285716	4.991707493142857	7.4031314097662335
O	9.700533592285716	8.581432323142858	6.175165429766234
O	1.0879636422857148	11.809180623142858	5.962072709766234
O	-1.9155266267142852	12.597469923142858	3.7999936297662336
O	-3.003403117714285	9.487379993142858	1.9118774297662335
O	-6.242666637714286	8.262986913142857	0.37893772976623374
O	-7.991173357714286	4.906362233142858	0.8184313897662336
O	-7.631319587714286	2.3545434931428573	-2.0030091402337664
O	-8.778876567714285	-0.8216000568571429	-0.1450145252337663
O	-9.640120747714285	-2.004574176857143	3.348133749766234
O	-6.807704107714286	-4.502230196857143	3.743469319766234
O	-9.051781747714285	-7.573667276857143	3.623526339766234
O	-9.956150257714285	-8.570616646857141	-1.5528954182337662
O	-7.419646047714285	-5.786000056857143	-1.0039366872337663
O	-5.322243417714286	-6.689766886857143	-4.067405120233766
O	-8.356652827714285	-6.505672246857143	-6.385422960233766
O	-9.620410947714284	-3.343865516857143	-4.780572490233766
O	-6.129090247714285	-1.9044569768571427	-5.047210770233766
O	-6.061328547714285	-2.7015011668571427	-8.774728660233766
O	-9.358933677714285	-0.9093996768571426	-9.307946390233766
O	-9.042806157714285	2.0975681191428572	-6.994999290233766
O	-5.336686987714286	2.950090153142857	-6.961099660233766
O	-6.211258997714285	5.672202943142857	-9.429591920233767
O	-8.898972367714284	7.315968973142857	-7.301424890233766
O	-6.752165897714286	7.182115163142857	-4.189058590233766
O	-4.017147427714285	8.959641163142857	-6.162764690233766
O	9.723812092285716	-10.031344576857142	6.361420979766234
O	8.874844662285716	-8.405386466857141	3.0336052197662333
O	5.729879942285715	-9.771712476857141	1.4146920497662336
O	4.030020352285715	-8.489866146857143	-1.7462062202337663
O	3.1250950722857143	-11.931807476857141	-3.093202830233766
O	-0.44370491371428517	-10.734113676857142	-3.3499208002337664
O	0.8139132422857149	-9.115923476857143	-6.573599250233766
O	3.0541732322857147	-11.936228376857143	-7.776925620233766
O	6.446591942285715	-10.836997776857142	-6.457086560233766
O	8.640738932285716	-13.528144076857142	-4.925851330233766
O	8.382281122285715	-13.765070876857141	-1.1273770912337664
O	10.028829092285715	-5.631560556857143	-2.808441890233766
O	8.889585982285716	-4.245561156857143	-6.179818410233766
