20

O	59.02721612468993	68.37496218905878	22.939263278080798
O	57.55908967146338	69.23315471510575	22.505401388918234
O	57.673935781381154	70.94177499699377	22.85481658166522
O	58.70384824038461	71.57091519745487	22.058020016284168
O	59.161553284816044	72.19103513772957	20.97159866747789
O	58.50881062217966	73.68318557380964	22.5561041961046
O	59.35865466504908	74.55489474364977	23.14845170407147
O	59.42314646394493	72.47590090087337	23.012434322347293
O	59.09105352324969	72.44073916482856	24.306434881469205
O	58.27244812766725	73.3581178443539	21.219264561795967
O	57.298131806919585	73.11737961950952	20.271947001398896
O	57.605356357603064	72.82013636901026	18.956967274173685
O	56.47470434012543	72.70652091196357	18.274483353973785
O	55.601428450298755	73.4215254276578	18.93345493775559
O	54.44925682607405	73.89152033057233	18.407889685875308
O	53.9253693777099	73.7509869120915	17.13124386346673
O	53.70076231329669	74.53222522859758	19.27155898763487
O	54.25522564312428	74.81205639832883	20.438687038740404
O	55.30111661721511	74.20303992747401	20.994796262597696
O	55.97752934858266	73.34815555827488	20.240282305566552
