20

O	2.665942430496216	-1.0648634433746338	-1.7368643283843994
O	3.9426310062408447	-0.05612573400139809	-0.9495950937271118
O	3.7450294494628906	1.6542432308197021	-1.0401190519332886
O	2.553680181503296	2.321694850921631	-0.10331382602453232
O	1.4235587120056152	1.557800054550171	-0.7559607625007629
O	1.8527910709381104	0.006381028797477484	0.6442323327064514
O	1.4114958047866821	-0.41842925548553467	2.0172133445739746
O	2.8903920650482178	1.2805722951889038	1.2599776983261108
O	1.876487135887146	1.9929091930389404	2.1122305393218994
O	0.5563268661499023	1.2041668891906738	0.5593286752700806
O	-0.44275811314582825	0.26567158102989197	-0.16744494438171387
O	-0.4013639986515045	-0.03179594501852989	-1.543447494506836
O	-1.5298019647598267	-0.7400677800178528	-1.8227756023406982
O	-2.2768733501434326	-0.9194316864013672	-0.7231550216674805
O	-3.438079595565796	-1.592721939086914	-0.434177041053772
O	-4.137319087982178	-2.2128758430480957	-1.5374500751495361
O	-3.8697967529296875	-1.6241536140441895	0.8275724053382874
O	-3.180513381958008	-0.9982887506484985	1.8343673944473267
O	-2.053391218185425	-0.33692076802253723	1.559961199760437
O	-1.5884371995925903	-0.2877640724182129	0.3038589656352997
