27

O	-1.354845404624939	-0.740547776222229	-0.6669292449951172
O	-1.9359327554702759	-1.9633028507232666	-0.40126508474349976
O	-2.07684588432312	-3.091782808303833	-1.201492190361023
O	-2.6566264629364014	-4.147891521453857	-0.449336975812912
O	-3.005458116531372	-3.549103021621704	0.7786334753036499
O	-2.503772735595703	-2.242114782333374	0.8102520108222961
O	-2.4871160984039307	-1.2581536769866943	1.7889714241027832
O	-1.908933401107788	-0.05240669474005699	1.5133157968521118
O	-1.3211671113967896	0.2696566879749298	0.29397764801979065
O	-0.7288752198219299	1.5549689531326294	0.06076815724372864
O	-1.355362057685852	2.7792556285858154	0.07121240347623825
O	-2.7569782733917236	3.042185068130493	0.3209852874279022
O	-3.5999062061309814	1.9857077598571777	0.5820730924606323
O	-3.1962804794311523	4.207503795623779	0.30058547854423523
O	-0.4177675247192383	3.7415597438812256	-0.19970576465129852
O	0.5872929692268372	1.807861566543579	-0.21911902725696564
O	0.7381900548934937	3.150005578994751	-0.37123098969459534
O	1.6828365325927734	0.8598947525024414	-0.34629109501838684
O	2.1023550033569336	0.06244300678372383	0.7128071784973145
O	3.1418163776397705	-0.832115650177002	0.58119136095047
O	3.5685110092163086	-1.6697720289230347	1.7265158891677856
O	3.056097984313965	-3.063439130783081	1.5127036571502686
O	3.8138787746429443	-0.9760881662368774	-0.6108194589614868
O	4.868004322052002	-1.881037950515747	-0.7494040131568909
O	3.4097819328308105	-0.1913820505142212	-1.673030972480774
O	2.359204053878784	0.7123462557792664	-1.5390136241912842
O	1.977898359298706	1.4857494831085205	-2.626354694366455
