27

O	2.224	35.507	-4.374
O	2.919	36.284	-3.453
O	4.255	36.526	-3.305
O	4.394	37.379	-2.237
O	3.158	37.664	-1.713
O	2.237	36.982	-2.457
O	0.851	36.912	-2.357
O	0.162	36.126	-3.276
O	0.838	35.428	-4.276
O	0.149	34.598	-5.16
O	0.049	34.696	-6.542
O	0.667	35.746	-7.467
O	0.783	35.475	-8.662
O	1.043	36.837	-7.035
O	-0.754	33.719	-6.962
O	-0.635	33.494	-4.843
O	-1.139	33.047	-5.997
O	-0.713	32.916	-3.576
O	0.428	32.719	-2.797
O	0.337	32.203	-1.506
O	1.623	31.87	-0.744
O	1.939	30.377	-0.875
O	-0.912	31.909	-0.969
O	-1.008	31.625	0.361
O	-2.055	32.072	-1.748
O	-1.951	32.565	-3.049
O	-3.064	32.695	-3.816
