20

O	7.347239302626914	10.042409636438828	2.7098513233101116
O	7.468092842973921	10.183123914531619	1.3303116507012582
O	6.284748071955905	10.28394268950138	0.5840858298912623
O	5.080354070570766	10.012583332612177	1.1498741685035005
O	4.947226037760723	10.009590201101332	2.5269287342355145
O	3.6626984305814227	9.978947745819694	3.0615137502900374
O	3.504857189158186	10.01341601465846	4.38553749388937
O	4.628852672378143	9.875905977293009	5.11415268430207
O	5.9532789446519105	10.000465967045766	4.666528942042926
O	6.09685590197086	10.054286285785517	3.317944010545799
O	8.887613458285507	9.942693111550945	3.376986159628087
O	9.62598037194248	11.185364223777954	2.8459297479732326
O	8.942297166705677	10.193858366726543	4.744523677752934
O	10.049594471668172	8.804861296509937	2.969544535417765
O	10.861787396142496	8.50805248171267	4.089807114762237
O	12.079548687562001	9.357365883176874	3.9694602209791494
O	11.44162863838809	7.10116369442396	4.178223560231341
O	11.94971440406442	6.855559865850738	2.8273605675895808
O	12.101691576476739	8.042880336382868	2.05982460805137
O	10.890584026117594	8.951898587465855	1.885342945006134
