27

O	-3.4579434394836426	-0.9191465377807617	-0.2827708125114441
O	-3.65267014503479	-2.15970516204834	0.5029271841049194
O	-4.1309123039245605	-1.8966248035430908	1.7430601119995117
O	-4.451780796051025	-0.7514064908027649	2.360713005065918
O	-4.277762413024902	0.41934865713119507	1.5778800249099731
O	-4.551146030426025	1.640398383140564	2.0384697914123535
O	-4.327620983123779	2.719212293624878	1.2936302423477173
O	-3.7851369380950928	2.604935646057129	0.03935173153877258
O	-3.554401397705078	1.3777976036071777	-0.4137842059135437
O	-3.802499532699585	0.21576914191246033	0.3411344289779663
O	-2.6084699630737305	-1.0573348999023438	-1.6194101572036743
O	-3.1103508472442627	-2.1856155395507812	-2.5262467861175537
O	-1.1591346263885498	-1.7149033546447754	-1.2260675430297852
O	-1.8942241668701172	0.11500532180070877	-2.7278189659118652
O	-1.3482229709625244	0.8449212908744812	-1.308611273765564
O	0.22155927121639252	0.805982232093811	-1.7773950099945068
O	0.775686502456665	1.3368864059448242	-0.7400519251823425
O	0.8729734420776367	1.1494947671890259	0.7211165428161621
O	2.228437662124634	0.3116576075553894	0.42723348736763
O	3.2951624393463135	0.9891279339790344	0.8585883378982544
O	4.622622489929199	0.4167594015598297	0.558218240737915
O	4.458252429962158	-0.4190002977848053	-0.6513171792030334
O	5.6807756423950195	-1.0368088483810425	-0.8969208002090454
O	6.823207855224609	-0.9917105436325073	-0.37193647027015686
O	8.343183517456055	-2.109783172607422	-0.8140026926994324
O	7.032073974609375	-0.15460070967674255	0.8281584978103638
O	5.758342266082764	0.4493432343006134	1.1259173154830933
