27

O	6.904	10.245	2.828
O	7.015	10.291	1.43
O	5.871	10.238	0.626
O	4.6	10.142	1.205
O	4.481	10.096	2.598
O	3.22	10.0	3.192
O	3.1	9.954	4.542
O	4.182	10.0	5.355
O	5.467	10.098	4.807
O	5.628	10.148	3.414
O	8.385	10.32	3.807
O	8.168	11.239	4.898
O	9.515	10.533	2.926
O	8.422	8.825	4.403
O	8.874	7.706	3.596
O	10.193	8.052	2.886
O	11.274	7.179	3.36
O	12.422	7.996	3.796
O	12.832	8.959	2.714
O	12.831	10.281	2.932
O	13.236	11.261	1.863
O	14.068	10.882	0.799
O	14.427	11.815	-0.183
O	13.954	13.131	-0.1
O	14.422	14.388	-1.388
O	13.128	13.511	0.956
O	12.772	12.576	1.932
