86

O	3.118285092708333	7.751490006422918	4.4200632950208325
O	4.971706532708334	7.215822216422918	3.359214975020833
O	4.235186402708333	5.985266166422917	5.116784575020833
O	0.6350515027083331	2.9011598184229177	5.371297255020832
O	-0.16828558529166693	6.228203156422918	0.7245225150208328
O	0.010011781708333056	1.7254204764229175	5.685944545020832
O	1.146556162708333	-0.4389461635770826	4.906648375020833
O	2.665474302708333	4.232301765422918	1.8653642650208326
O	3.500377122708333	4.659418216422917	2.817558245020833
O	0.7264242427083331	4.421772106422917	-0.28781391197916717
O	0.48351527270833305	3.1452322064229175	4.0584770050208325
O	1.072151202708333	1.7734891264229176	3.9012942750208333
O	0.676959922708333	0.8769430664229176	4.856858935020832
O	-0.0686666132916669	3.2965494259229176	2.737228245020833
O	0.8415160527083331	2.7782835184229175	1.7567608350208326
O	2.173723582708333	2.8470645254229177	2.001143195020833
O	2.166994382708333	2.1139958564229175	3.104080475020833
O	3.096867932708333	5.864247986422917	3.133495965020833
O	2.493222782708333	6.435962246422918	1.9963322950208326
O	1.9096173227083328	5.311378966422918	1.4898342550208328
O	3.8784099427083327	6.725769576422918	4.022064285020832
O	0.6057800827083332	5.258270216422917	0.8094357750208327
O	-0.39452017929166694	4.1839117684229175	-1.1109590029791672
O	-0.39033707029166687	5.120328026422918	-2.176366034979167
O	-1.510345799291667	5.740186436422917	-2.720798654979167
O	-2.684353117291667	5.0614202664229175	-2.621129604979167
O	-2.815169857291667	4.577190356422918	-1.3594608129791672
O	-1.6356404042916668	4.189034716422918	-0.5518221665791672
O	-3.710467767291667	5.260259606422918	-3.636784144979167
O	-4.861458707291667	4.656531426422918	-3.812549654979167
O	-5.465897127291667	5.250115676422918	-4.925010674979167
O	-4.944611097291666	6.502810776422917	-4.908049804979167
O	-3.696534937291667	6.322859686422918	-4.396103594979167
O	0.7121377027083332	5.097625136422917	-2.921077094979167
O	-2.5554113672916667	7.138614736422918	-4.937201284979167
O	-2.996764727291667	8.383990466422917	-5.506993404979167
O	-4.2742150472916665	8.310576976422917	-6.168477974979168
O	-2.017268797291667	8.722924296422917	-6.5405769449791675
O	4.320665152708333	-5.236802623577082	-5.825237954979167
O	3.7996787927083333	-4.141642973577083	-9.435264464979166
O	3.8615915327083328	-0.5095428835770823	-8.308382274979166
O	7.470108402708334	-0.9630699235770828	-7.156842884979167
O	8.648518152708334	-1.4156732935770822	-10.734999594979167
O	7.901602702708333	2.2991645564229177	-11.198806294979166
O	-2.093528097291667	-3.230550323577082	-12.830523194979166
O	-2.9129746372916667	0.5019818864229175	-12.793183094979167
O	-1.6060602112916669	3.2200039616229175	-10.506123494979166
O	-5.004293997291667	4.851733576422918	-10.678773894979166
O	-6.589666897291667	2.1446316364229174	-8.541349404979167
O	-3.570150517291667	0.12877579642291748	-7.355200024979167
O	-5.572919437291667	-2.8979084035770826	-8.387843834979167
O	-0.599211828291667	-4.749287703577082	-7.503602734979167
O	4.4118938227083335	-8.364766123577082	7.648710545020832
O	8.066439992708334	-7.338109023577083	7.3892156350208325
O	9.852467642708334	3.6583389124229173	7.359173085020832
O	5.0830078527083336	7.833391476422918	9.144935655020834
O	7.338297332708333	10.908743096422917	9.103712195020833
O	10.715956242708334	9.210812556422917	9.257272275020833
O	-12.111531557291666	-2.1155705035770827	6.093118785020833
O	-11.132499357291666	3.3481980890229175	2.995738965020833
O	-11.288651957291666	6.539672156422918	0.9140318850208329
O	-10.410720777291667	4.317811306422918	-2.009045744979167
O	-12.089935157291666	1.2078699964229176	-3.395209774979167
O	-10.820394087291666	-2.025454863577082	-1.9088407149791673
O	-6.948080287291667	-5.296739133577082	4.978080475020833
O	-4.735512107291667	-6.185744973577082	7.934245995020832
O	3.6823395727083326	-1.3297638235770823	7.399836315020832
O	4.736576512708333	2.019858096422918	5.597043275020833
O	6.505914362708333	3.3211175733229177	2.755795845020833
O	9.340701042708334	1.1893017864229174	1.686873405020833
O	7.756727422708334	-2.028445673577082	2.891804225020833
O	5.702232482708333	-2.2044136235770826	-0.3025289309791671
O	6.1210874127083335	-5.418243693577082	-2.2546138849791673
O	7.346160562708333	-7.072311723577082	0.9299255750208328
O	2.450148802708333	-5.054811533577082	1.0921165950208327
O	0.538342522708333	-2.7683115135770824	-1.2857460679791672
O	-0.6078780002916668	0.42749652642291736	0.1752558230208328
O	-2.485848707291667	2.5122006404229174	2.964005205020833
O	-3.532647557291667	6.073620616422918	3.881894755020833
O	-0.5829734992916669	7.211255826422917	5.945926845020833
O	0.8600454527083331	4.785627766422918	8.656157725020833
O	-7.183280027291667	3.1186984134229174	8.736805315020833
O	-5.707555727291666	-0.32664915357708235	7.864187815020833
O	-2.735071407291667	-1.5932318635770826	5.7763073350208325
O	-3.899404557291667	-2.6985218735770826	2.333754165020833
O	-2.2897133772916667	-5.864739023577082	0.9061925550208327
