98

O	1.5473687839188415	-1.9267890580000002	-1.7154143596376816
O	0.4060629339188414	-2.691490628	-1.3393233266376816
O	-0.6948660270811586	-2.292397708	-0.47711285793768166
O	-1.5525157560811587	-2.9851299480000004	0.3814187903623184
O	0.1361805239188415	-1.416161518	0.3030436033623184
O	1.4897783339188413	-0.9749808080000002	0.06729819736231835
O	1.4668280639188414	-0.570643558	-1.3234324496376817
O	2.8172157039188415	0.48768390399999995	-1.4306299606376816
O	2.9773592539188414	1.252032428	-2.644803039637682
O	3.9473934939188418	-0.450764148	-1.5590846996376817
O	3.1226847939188414	1.444879003	-0.02401958763768164
O	2.1897075039188416	2.260057712	0.3481937493623184
O	2.0903457439188413	3.397019312	-0.43068538863768163
O	2.8233456039188414	2.856926722	1.5527584303623183
O	0.8667148339188414	1.694149705	0.47205380036231825
O	0.3082682739188415	2.122603492	1.5114901903623184
O	0.05313441891884141	1.662505141	-0.6365413505376817
O	-1.3432380300811586	1.442070929	-0.40205166163768163
O	-1.7839613190811585	1.24264704	0.9238033603623184
O	-1.8395308990811587	0.646354848	-1.3842925466376816
O	-3.1394623360811584	0.16944201699999994	-1.0741459906376818
O	-3.8369191760811585	0.675268899	0.0568367853623184
O	-5.276967656081158	0.6271749710000001	0.1597989383623184
O	-6.344814896081158	0.422453357	-0.27803906663768163
O	-2.9910032060811584	0.6777263170000001	1.1606098303623185
O	-3.4499057260811585	0.09796253799999999	2.3911591403623182
O	-3.0676236860811583	0.675048866	3.5698953603623185
O	-4.787164116081159	0.09789540100000005	2.3863090603623185
O	-3.0944366660811586	-1.206764738	2.523450100362318
O	-6.754248646081159	6.838403452	-5.961475079637681
O	-6.716328916081158	9.380892292	-8.780214609637682
O	1.7511691839188415	10.768497322	-1.9545634596376817
O	3.3213808939188416	7.379530731999999	-2.286267229637682
O	2.9636936939188416	7.2089823420000005	-6.060060959637681
O	-0.7743287400811586	7.763107892000001	-5.420219239637682
O	-0.8518391724811586	5.188071261999999	-2.5756293596376816
O	0.7893707339188415	2.744338732	-5.028161869637682
O	-1.7008278480811585	3.362212762	-7.627539519637682
O	-4.549252016081159	2.9742446620000003	-5.137789759637681
O	-3.1952505460811587	-0.39963073799999993	-4.248251769637681
O	-3.1604057960811587	-1.428204838	-7.7343180496376815
O	-6.818039736081158	-0.3608230779999999	-7.931754349637681
O	-7.941983866081158	-1.977417478	-4.625516649637682
O	-6.316775726081159	-5.270199558	-5.592910209637681
O	-8.536560956081159	-5.524869398	-8.618802829637682
O	-10.18706739608116	-7.583133908000001	-3.6701733296376817
O	-9.612164526081159	-10.337708678	-6.2270563696376815
O	-3.3789299160811583	-10.955155878000001	2.9240596603623183
O	-3.9546257660811586	-7.921945228	0.6930328203623184
O	-2.172886146081159	-5.729166928	3.2502489603623186
O	-4.160246666081159	-6.503818708000001	6.220756250362318
O	-7.427104496081158	-6.594454338	4.204204300362319
O	-6.8935660160811585	-3.155873278	2.9251639903623188
O	-5.788040776081158	-1.784144758	6.371655530362318
O	-8.89684839608116	-3.2168596280000004	8.084595330362317
O	-11.268716766081159	-1.8833811580000002	5.414627210362319
O	-9.530377186081159	1.494672833	5.553772320362318
O	-14.01197736608116	3.692556832	6.263134920362319
O	-7.076722846081158	8.436829162	7.572761300362319
O	-9.586889636081159	7.881990721999999	4.741629580362319
O	-7.563857136081158	5.897885812	2.1867576603623187
O	-9.85349054608116	6.9993746219999995	-0.5983025876376816
O	-6.711689336081158	10.692978931999999	-0.7488913006376816
O	4.496392593918841	10.288887782	3.6594944403623186
O	7.178219933918842	9.256337071999999	6.161928160362319
O	4.636754003918841	6.716073972	7.4722746103623185
O	3.6055135539188417	8.741941722	10.494949820362317
O	4.107734903918842	6.014452282000001	13.115352720362317
O	2.2184190039188416	3.483420092	11.038845720362318
O	-0.5905873840811586	5.982865302	10.445301220362317
O	-12.722905666081159	-8.982753178000001	7.0967457303623185
O	0.45607024391884143	-3.1012363080000003	11.454812820362317
O	0.43562874391884143	-4.961195858	8.147163460362318
O	3.9574994739188414	-6.175785888	8.869157600362318
O	5.3067942539188415	-2.638672758	9.342429380362317
O	3.7580449639188416	-1.5716299280000001	6.1427653603623185
O	5.251080863918841	-4.638341688000001	4.410356780362319
O	8.753377693918841	-3.678622568	5.628500820362318
O	8.353952813918841	-0.016744458000000018	4.677517990362318
O	7.090706553918841	-0.9449582680000002	1.2702544703623184
O	9.855439933918841	-3.3594665779999997	0.5041821903623183
O	10.77717023391884	1.823906004	-0.6809501026376816
O	10.60878863391884	-0.343494768	-3.8176116796376816
O	12.21878923391884	3.881453482	-5.597133469637681
O	13.17083543391884	8.965993352	-4.447442789637682
O	8.332003483918841	7.003437011999999	-6.442477769637682
O	6.446535033918842	5.008461732	-9.047899889637682
O	5.148613953918842	1.474602001	-8.528269379637681
O	2.5270286939188416	-0.04293649799999999	-10.851981579637682
O	1.3589339539188416	-5.791838148	-10.266820359637682
O	2.3352433839188413	-4.036741188000001	-7.024606169637681
O	6.027629793918842	-4.2360729379999995	-7.990596029637682
O	5.629611603918842	-7.951112228000001	-8.615697279637683
O	3.865467273918841	-8.560144318	-5.292285629637681
O	6.3582322739188415	-6.518839418000001	-3.280135479637682
O	9.36073113391884	-8.400067758	-4.821579289637682
O	6.326491543918841	-9.757140778	0.3977299973623184
O	9.92518623391884	-11.011819078	0.7972223003623184
