17

O	-1.3181685209274292	4.320346832275391	1.3599698543548584
O	0.13448262214660645	3.3258838653564453	1.3568309545516968
O	-0.28277814388275146	1.7152255773544312	1.34614896774292
O	-1.0917212963104248	1.8125989437103271	-0.05819841846823692
O	-1.65701425075531	0.4447394609451294	-0.31875693798065186
O	-2.8782641887664795	0.09469712525606155	0.23566879332065582
O	-0.9948543906211853	-0.45293211936950684	-1.0999994277954102
O	-3.4051620960235596	-1.1455401182174683	-0.006510586477816105
O	-1.5268316268920898	-1.691002607345581	-1.339102029800415
O	-2.7277140617370605	-2.055084705352783	-0.8024090528488159
O	1.5733367204666138	0.07444354146718979	0.7496904134750366
O	0.8979692459106445	-0.8270249366760254	1.3794333934783936
O	1.068467378616333	1.3507723808288574	0.6898203492164612
O	2.8931884765625	-0.3054061233997345	0.10137568414211273
O	3.0272302627563477	-1.7650172710418701	0.18209953606128693
O	4.140688896179199	-2.393857479095459	-0.33599159121513367
O	2.1471450328826904	-2.502842664718628	0.7196041345596313
