83

O	-0.49068224650045433	1.6793178595878788	3.643937227540909
O	0.7408979234995456	0.49903171878787866	2.952579967540909
O	0.6876424834995457	1.0203439575878788	1.580164387540909
O	0.5881714674995456	-0.04846364241212131	0.5930704585409089
O	1.8723434934995458	-0.7164304504121214	0.31003275454090895
O	1.9306483434995456	-2.0033711304121216	0.7567257575409089
O	2.3102498134995457	-0.6039187304121213	-0.9792801124590911
O	2.068701813499546	-3.1234964904121214	-0.06453161445909109
O	2.343834273499546	-1.6973289504121216	-1.8438229324590911
O	2.5670239734995457	-2.9120123804121216	-1.3093242424590912
O	2.425941673499546	2.2845153295878786	2.150629767540909
O	2.989045973499546	1.4983740605878788	2.920182797540909
O	1.8362100034995457	1.7045415295878787	1.0385970275409089
O	2.3820457234995454	3.7120071695878787	2.3214781475409088
O	3.080179823499546	4.069290709587879	3.550021297540909
O	2.118172743499546	4.306058669587879	4.558032857540908
O	3.997432623499545	3.2988046695878785	3.896805447540909
O	-2.222040296500454	0.11638471458787863	-13.854880622459092
O	-3.0662781865004547	2.9799081195878787	-11.448554722459091
O	-6.9459188365004545	-0.6529761204121213	-10.937181522459092
O	12.854946673499546	9.202809789587878	-7.440817702459091
O	13.085107873499547	5.570669979587879	-6.377722102459091
O	10.214390473499547	6.141468059587878	-3.816883472459091
O	9.364441483499546	2.8479847195878785	-2.153172912459091
O	5.808907503499546	3.5617016995878785	-1.179292744459091
O	2.2925794734995453	4.6103698695878785	-2.195752212459091
O	-0.2935941763704543	6.732556279587879	-0.23445958415909107
O	-3.5734179865004547	8.357535429587879	0.011515018540908917
O	-2.809717916500454	12.034162149587878	1.030624277540909
O	-6.324846686500455	13.130263549587879	2.224188387540909
O	-3.505675816500454	8.610012839587878	-4.397351882459091
O	0.3058959244995457	8.77581039958788	-5.064379092459091
O	2.566377223499546	6.016226519587878	-6.296240812459091
O	6.341771543499545	5.762239649587879	-6.211781392459091
O	8.207368793499546	3.7764585795878785	-8.85630409245909
O	10.209841273499546	1.8824087295878789	-6.145452682459092
O	13.991008173499546	1.5286915645878787	-6.4080773824590915
O	12.904663873499546	-3.570292640412122	-2.993601522459091
O	9.843553873499546	-2.6345901204121214	-5.140255312459091
O	6.261883373499545	0.6289017519878787	-9.378235092459091
O	3.6130742934995457	0.33159920858787867	-6.7291593324590915
O	0.45360899249954567	0.6029764723878787	-8.850530452459092
O	1.2502065034995458	-2.8019606704121216	-10.45486062245909
O	-0.34667785560045433	-4.495528780412122	-7.444166502459091
O	-4.120956566500454	-4.481564100412122	-7.248291492459091
O	-4.016030416500454	-5.060408730412122	-3.363288862459091
O	-1.8107926065004543	-1.9013980204121212	-3.028043912459091
O	-4.2227234565004546	0.26027337858787863	-5.247173492459091
O	-7.307147916500455	-0.9321319004121212	-3.2999644324590913
O	-5.549358156500454	-0.5188087304121213	0.0736637445409089
O	-5.020564286500455	3.1530045295878786	-0.8695662574590911
O	-8.583211646500454	3.8647102695878783	-2.028398432459091
O	-9.956137446500454	2.1807940995878785	1.0576117375409089
O	-8.054461546500454	4.738150349587879	3.1825757375409087
O	-10.269806186500453	7.399513749587879	1.370558627540909
O	-12.250881726500454	5.157457099587878	5.936560047540909
O	-3.761962416500454	-0.1865920594121213	13.219356077540908
O	-7.523042726500455	-0.6646345304121214	12.652130377540908
O	-7.284456726500455	1.7991335695878785	9.742246377540908
O	-4.318604406500454	-0.1425146154121214	8.218275777540908
O	-6.143580976500455	-3.579776130412122	8.757306597540909
O	-9.387848486500454	-2.2817396304121216	7.015776917540909
O	-7.2007754465004545	-1.2514268004121214	4.046126037540909
O	-5.486870576500454	-4.6034595004121215	3.977467587540909
O	-7.468352836500454	-4.638938940412121	-0.7860428854590911
O	-4.0953123965004545	-13.394154750412122	1.7374558675409086
O	-0.6456229455004543	-11.856394950412122	1.187530677540909
O	-0.05703257650045432	-8.114645780412122	0.7739434275409088
O	2.036617903499546	-6.5422170504121215	-2.059174632459091
O	3.4064997334995457	-9.737954750412122	-3.407950812459091
O	5.402196693499546	-5.623904230412122	-6.656994552459091
O	7.725053983499545	-6.508269130412121	-3.712634952459091
O	5.288507133499546	-10.382279250412122	0.2904726935409089
O	5.303037603499545	-7.411867250412122	2.5084951675409086
O	2.711411073499546	-8.554230370412121	5.088506807540909
O	7.778426273499545	4.026578249587879	15.907665277540909
O	5.394786973499546	3.6481284795878786	12.971795177540908
O	2.9666433434995456	0.37052267758787866	15.09084527754091
O	-0.014030509500454313	1.1023842695878785	12.773541177540908
O	1.5769308134995457	-1.2123945904121212	10.20053237754091
O	2.7037754634995457	-3.659839720412122	12.87633367754091
O	-2.5504093065004545	-4.3803825104121215	12.062631377540908
O	-5.675372266500455	-9.124514440412122	9.73090617754091
