15

O	20.62	61.774	28.766
O	21.139	61.6	27.463
O	20.463	61.527	26.469
O	22.548	61.509	27.42
O	23.437	61.578	28.475
O	24.642	61.471	28.345
O	22.772	61.762	29.809
O	23.557	61.863	30.902
O	21.421	61.875	29.86
O	19.174	61.948	28.937
O	18.621	63.255	28.384
O	18.927	64.389	29.32
O	17.131	63.21	28.056
O	16.407	64.056	28.529
O	16.779	62.214	27.326
