15

O	0.2434336245059967	-0.08999139070510864	0.6656754612922668
O	0.9937548637390137	1.0370147228240967	0.6261687874794006
O	0.6799303889274597	1.9842286109924316	1.3846932649612427
O	2.0344371795654297	1.108730673789978	-0.20871810615062714
O	2.36637544631958	0.0801665410399437	-1.0249751806259155
O	3.3457391262054443	0.1342998743057251	-1.8176627159118652
O	1.6074614524841309	-1.0705900192260742	-0.9906890392303467
O	1.9036270380020142	-2.1411266326904297	-1.7988998889923096
O	0.5393685102462769	-1.1180669069290161	-0.12014409154653549
O	-0.8809626698493958	-0.22027890384197235	1.5611802339553833
O	-2.1770966053009033	0.378122478723526	0.7154190540313721
O	-3.1528360843658447	0.08535771816968918	1.9730085134506226
O	-2.4781174659729004	-0.9763320684432983	-0.04924501106142998
O	-1.9040510654449463	-0.9894744753837585	-1.2833454608917236
O	-3.121063709259033	-1.8886123895645142	0.3675340414047241
