25

O	14.311	0.26	9.651
O	18.322	-1.7	9.293
O	19.647	-1.952	8.949
O	20.324	-3.134	9.243
O	21.653	-3.269	8.836
O	22.29	-2.242	8.138
O	21.614	-1.056	7.847
O	20.291	-0.94	8.241
O	16.969	-4.812	10.074
O	17.035	-6.067	10.685
O	17.645	-6.178	11.936
O	18.174	-5.027	12.549
O	15.515	0.424	9.127
O	16.465	-0.507	9.298
O	17.752	-0.545	8.863
O	16.203	-1.663	10.032
O	14.552	-2.861	11.295
O	14.918	-1.799	10.569
O	14.02	-0.821	10.351
O	18.103	-3.774	11.932
O	17.379	-2.423	10.034
O	17.5	-3.666	10.677
O	12.69	-2.501	12.88
O	13.125	-3.139	11.552
O	12.185	-1.18	12.645
