25

O	14.63637367868578	0.2853686810606313	9.631630384475887
O	18.677271068508418	-1.5755960979619525	9.053006611879526
O	20.130611170736735	-1.8468437160196556	9.040748958125919
O	20.74187913166548	-2.210805646094471	7.8810477951403035
O	21.935656051075178	-2.9295251968682	7.847618037677957
O	22.428237523937135	-3.5423572877598613	8.952625970139442
O	22.082187345189848	-2.893489419823293	10.095727732648621
O	20.86486557830375	-2.223523168797965	10.125527234029907
O	19.086704307765377	-4.314720549843819	9.79436442082245
O	19.906567864723506	-5.333983157530296	10.273463246118412
O	20.048246087325204	-5.510739525032869	11.604302194588069
O	19.62222753026688	-4.456397774100083	12.338630863917786
O	15.739175151798268	0.3635194103219159	8.850283571920395
O	16.81744690112091	-0.42556986288494936	9.084415112324507
O	18.052254838353377	-0.503225480897568	8.626972194733217
O	16.675879044297584	-1.506718819814298	9.943220827133965
O	15.216485638399572	-2.994431810820708	11.025439476102537
O	15.433486782293878	-1.6776239394677872	10.481856151424505
O	14.379857251938741	-0.9493054953354483	10.131996064341928
O	18.428096320436833	-3.897914652809641	11.847862121116965
O	17.88178347985751	-2.2175792578082634	10.018212712408957
O	18.180437506231158	-3.5643767863603726	10.54836240457497
O	14.107756838819032	-3.8338764724659953	13.067422634321353
O	15.255040549822828	-3.101416873856852	12.43430911406324
O	14.674176051471095	-4.7634741099956655	13.955165925511755
