81

O	-4.106606407096551	-2.2676729129913795	-0.5850252666913787
O	-5.062200147096552	-2.7577798929913797	0.39078196730862136
O	-4.985821837096552	-1.2400910229913795	-0.09506829889137867
O	-5.014127047096552	-0.47361776299137937	1.1299273023086214
O	-3.5800523970965514	-0.3841844129913794	1.2832065923086213
O	-3.1744974570965514	0.5787808020086206	0.34502435030862133
O	-3.9264750870965517	1.5281339920086205	-0.2880625926913787
O	-3.1633559970965517	2.252196017008621	-1.1464698776913786
O	-1.9453722170965517	0.9803316830086206	0.4448350223086213
O	-1.1485235610965516	1.7193844440086206	-0.3520315826913787
O	-1.7865943800965516	2.442899027008621	-1.2499826076913787
O	-0.7815159390965516	2.984991357008621	-1.9429879476913785
O	0.44400233290344815	2.4632896870086203	-1.5699983976913785
O	0.2024658229034484	1.5427359320086205	-0.6272337376913787
O	0.7924999229034482	0.23096862400862062	-0.12198149169137867
O	0.10021933290344842	-0.6334527129913794	0.7891954023086213
O	1.2612685629034486	-0.5661776829913794	-1.0978986146913787
O	0.3712488029034484	-1.5517119229913796	-1.5338076376913785
O	-0.9487903960965516	-1.4670417229913795	-0.9254302476913787
O	-0.8279539680965516	-1.6210657329913796	0.4075338773086214
O	-1.3513039820965516	-2.785626772991379	1.1848992823086213
O	-0.5186530770965516	-4.06765446299138	1.3156673523086213
O	-2.065028782096552	-2.74797779299138	2.225068582308621
O	8.815920372903449	10.84542828700862	7.268443832308622
O	2.937943332903448	10.35048366700862	8.893994322308622
O	-0.4849057570965516	11.09652038700862	7.394597402308621
O	-3.7529375570965517	9.19081854700862	7.720299542308621
O	-4.210860197096552	5.414998077008621	7.913375952308622
O	-5.062539347096552	4.05809481700862	4.493668512308621
O	-6.030575197096551	0.6075704550086206	5.681214402308621
O	-5.1182482570965515	-2.431114972991379	7.5904423923086215
O	-5.466287927096552	-6.162459512991379	7.548822452308621
O	-3.4805057470965517	-9.34113761299138	7.178614582308621
O	-0.7378297150965516	-7.27890522299138	5.558849192308621
O	-0.36824002709655157	-4.965623192991379	8.601296072308621
O	-1.2896109290965516	-1.2671268629913792	8.83383254230862
O	-0.5637794670965517	1.1199497170086206	6.006249162308621
O	-0.3161411670965517	4.937616867008621	6.4455155323086215
O	0.06995146290344834	7.77248846700862	3.9908797423086213
O	3.324285942903449	9.645625037008621	4.451129302308622
O	4.777335742903448	10.681537277008621	-1.3411265476913785
O	5.253671162903448	7.3802102570086205	0.4606938493086214
O	3.3700972129034485	4.676503567008621	2.167621772308621
O	4.416494342903448	3.5398583570086206	5.633238892308621
O	3.617180722903448	-0.08010033599137945	6.410014202308621
O	3.7982014029034485	-1.5749725429913795	9.875483602308622
O	3.774070362903448	-5.31470117299138	10.596095202308621
O	10.453753272903448	-10.53348531299138	7.025371682308621
O	8.58139097290345	-9.21919636299138	2.1360107723086212
O	6.226835542903448	-3.0345893529913797	-8.865409897691379
O	5.836886192903448	-0.5626306329913795	-5.9488344976913785
O	8.299168142903449	-0.6473752229913794	9.315441852308622
O	8.582622172903449	-0.4620816529913794	5.522193292308621
O	8.65796357290345	2.6889788770086205	3.465035822308621
O	7.194392172903449	2.179722057008621	-0.02246906559137868
O	6.4096829929034485	4.37404717700862	-3.037769897691379
O	2.958270902903448	5.85714166700862	-3.092072007691379
O	1.6271415129034486	7.05763738700862	-6.454002507691379
O	-3.2952313470965517	9.92032601700862	-7.277607277691379
O	-3.8755794870965516	6.26141361700862	-6.910565447691379
O	-6.832963997096552	3.816662637008621	-6.751274137691379
O	-6.662846187096552	0.06447644000862063	-6.191684777691379
O	-7.953264587096552	-2.1219900529913795	-8.977518297691379
O	-10.566448297096551	-3.82142662299138	-6.741797067691379
O	-12.25949172709655	-0.46554904299137934	-6.0913155076913785
O	-11.85121352709655	0.7065174685086206	-9.707606677691379
O	-1.9207988410965515	-11.722912112991379	-7.5266090576913784
O	-5.441334597096551	-10.305622212991379	-7.294208537691379
O	-7.193541617096551	-6.95437727299138	-7.993017867691379
O	-6.785187027096551	-5.83973648299138	-4.3140590076913785
O	-3.0210282370965515	-6.134113942991379	-4.789455907691379
O	-2.782426157096552	-3.9013318629913796	-7.884129657691378
O	-2.686175507096552	-0.11856430899137937	-7.687882237691379
O	-3.529574027096552	2.1547848170086206	-10.58010609769138
O	-1.6403491114965516	5.395642047008621	-11.036744197691378
O	1.7810996429034485	-1.3472734229913794	-9.769779937691379
O	1.9898400729034482	-4.600025112991379	-7.918278457691379
O	1.9340320029034483	-4.64688322299138	-4.160471347691379
O	1.9243157029034483	-6.8119198229913795	-1.0433802306913786
O	4.695460632903448	-9.452178812991379	-1.1411071476913786
O	3.871908002903448	-10.67564971299138	2.3718574223086213
