12

O	-14.387266159057617	4.669360637664795	-13.010391235351562
O	-13.693353652954102	5.267690658569336	-14.103919982910156
O	-14.613283157348633	5.661576747894287	-15.151176452636719
O	-12.783576965332031	4.299266338348389	-14.854924201965332
O	-12.78117561340332	4.804247856140137	-16.301044464111328
O	-13.823945999145508	5.936948776245117	-16.318178176879883
O	-12.877532958984375	6.501483917236328	-13.656744956970215
O	-11.87458324432373	6.042778968811035	-12.737082481384277
O	-12.254923820495605	7.24143123626709	-14.87546157836914
O	-11.806007385253906	8.54289436340332	-14.504638671875
O	-13.220813751220703	7.330156326293945	-16.05961799621582
O	-12.564352035522461	7.786785125732422	-17.259082794189453
