90

O	1.5083742978235293	0.42296178186764644	2.8576049811691178
O	2.0626602678235293	0.8918761438676465	1.6706077211691173
O	1.1357675278235293	0.5805873138676465	0.49387696616911736
O	-0.22790714717647076	1.1160612878676464	0.7729076481691174
O	-0.34550331017647073	2.4664903478676465	0.9759445771691173
O	-1.0798291381764709	0.8054340388676464	-0.4248498178308826
O	-0.9540405312864708	1.8210920878676466	-1.3280437388308826
O	-1.1184702261764707	-0.5898529841323535	-0.8700691888308827
O	-1.2540860611764708	-0.7826575521323537	-2.2166381588308823
O	0.9238787678235293	-0.8861862521323535	0.24645947116911737
O	1.7507942978235294	-1.6943854621323537	0.9646416881691173
O	1.0781370978235292	-2.8442366121323532	0.7335546041691173
O	0.06272941782352925	-2.7800280621323537	-0.12054426683088265
O	-0.02077861717647078	-1.4773222721323536	-0.3712089498308826
O	1.5124021678235295	-4.070967082132354	1.3183622311691174
O	1.9066043078235295	-3.5823378621323534	2.6779416511691174
O	1.1919553578235291	-4.484144082132353	3.5540748011691177
O	-0.07170212117647079	-4.0408789621323535	3.9325782011691173
O	-0.6771938051764708	-4.819840172132354	4.872062111169117
O	1.1213753678235294	-5.822720352132354	3.162696551169117
O	0.3159614878235292	-6.612289612132353	3.9254053311691175
O	-0.08953285217647078	-6.054112612132354	5.131493301169117
O	2.080715137823529	6.000296577867647	-7.424132088830883
O	-0.8378205451764708	7.220401557867646	-5.308478398830883
O	-4.444578602176471	6.194015017867646	-4.539816868830883
O	-7.59881051217647	8.372428807867646	-4.472690668830883
O	-8.72293007217647	7.949124207867647	-0.8478694798308827
O	-5.185231102176471	8.286494147867646	0.46076659516911733
O	-13.348275202176472	3.8895837778676468	3.5269636311691173
O	-10.989013102176472	1.4535231778676465	13.111429361169117
O	-8.16094255217647	3.8535969278676467	12.264267961169118
O	-12.744632902176471	6.991160567867647	-6.7773876388308825
O	-10.131168752176471	0.12567340386764644	-8.031627178830883
O	-7.8429212321764705	0.9474795728676464	-5.189350968830883
O	-10.164241432176471	-0.0038919261323535626	-2.3073301388308822
O	-7.610180972176471	-4.0234720521323535	-9.229045498830883
O	-5.037329352176471	-3.0650777721323537	-6.676536898830883
O	-4.096428432176471	-5.953610792132354	-4.433318618830883
O	-7.255565382176471	-8.115400832132353	-4.549547798830883
O	-5.72301536217647	-10.289033012132354	-1.8153919488308827
O	-5.683336052176471	-7.268099052132354	0.5202830551691173
O	-9.266309692176472	-6.298762992132353	-0.5404819438308827
O	-8.504375012176471	-10.964136712132353	3.1420379111691172
O	-7.581672002176471	-7.7668079321323535	4.977913091169117
O	-8.898124862176472	-9.817029412132353	9.145831771169117
O	-8.532612572176472	-4.438644632132354	9.511185921169117
O	-9.55827073217647	-2.6696902621323533	6.308328431169117
O	-3.892429232176471	-6.197875102132353	-12.594842438830883
O	-1.7596524121764707	-5.539292522132353	-9.470534448830882
O	-0.8426662191764708	-7.947375912132353	-6.683632708830883
O	0.8886396778235292	-7.561442202132353	-3.384879088830883
O	3.9036360478235297	-9.799918112132353	-2.795005508830883
O	6.060128587823529	-10.699144312132354	0.15769917536911737
O	1.8759494878235294	-5.235787372132354	-11.888121738830883
O	3.7458145678235297	-6.461610922132354	-8.791537308830883
O	3.8465462478235297	-4.471748672132353	-5.569436078830883
O	6.7296284178235295	-5.407985302132354	-3.292458678830883
O	7.6506313978235285	-4.076529892132354	0.22327241346911736
O	9.292283297823529	-6.653376442132354	2.4731623111691174
O	10.340522697823529	-10.133121312132353	3.3604560911691177
O	9.16940929782353	-12.537547112132353	5.993303061169117
O	8.644937177823529	2.3069034878676464	10.551131661169117
O	5.941546777823529	-0.20475273113235354	9.553499961169116
O	8.144313647823529	-2.8036837421323533	11.223689361169118
O	8.66502516782353	-4.371843422132353	7.817192651169117
O	11.94390109782353	-6.243071902132353	7.255786881169117
O	6.773784777823529	-2.9139898421323536	-10.355376738830882
O	3.6440093578235295	-0.8529073721323536	-9.588698528830882
O	4.644884967823529	0.007666361867646437	-5.982526598830883
O	7.8856096678235295	-0.14923146913235358	-3.948494728830883
O	8.71671075782353	2.0786803978676462	-1.0383038188308826
O	9.256794997823528	2.5795570378676467	2.6264813711691177
O	7.87133511782353	4.354545267867646	5.6256039611691175
O	7.714380797823529	4.456403017867647	-6.231453738830883
O	5.010171617823529	4.276567017867647	-3.500184978830883
O	4.3968549078235295	7.151188807867647	-2.9703490988308827
O	4.63349305782353	10.595411587867646	-4.607918298830882
O	3.2972836378235293	12.036614787867647	-1.2811939988308827
O	3.054856817823529	11.202035387867646	2.4343423611691177
O	-0.6323578041764708	10.345991887867646	2.7033511611691177
O	-3.4336754421764706	8.551695307867647	4.611809151169117
O	-1.9416214221764707	5.139020097867647	5.312366201169117
O	-5.17506973217647	3.1671576578676466	5.726885821169117
O	-5.73260569217647	1.9405494778676466	9.310500751169117
O	-2.378412582176471	3.4539212778676465	10.340100061169117
O	3.196135627823529	6.580672277867647	8.429785141169116
O	4.962410097823529	8.583648537867646	5.728813821169117
O	5.76679586782353	6.7090282378676465	2.479369791169117
O	6.32112078782353	9.781238497867646	0.24678175316911738
O	7.6360153778235285	14.353618887867647	-1.0364379788308826
