22

O	-2.775	8.045	8.48
O	-3.267	9.363	8.2
O	-2.313	10.473	8.629
O	-1.103	10.642	7.694
O	-1.516	10.841	6.337
O	-0.266	11.838	8.192
O	0.814	12.211	7.337
O	0.364	11.558	9.549
O	0.743	12.785	10.155
O	-1.729	10.215	9.971
O	-2.213	9.423	10.942
O	-1.287	9.46	11.973
O	-0.28	10.254	11.588
O	-0.552	10.717	10.368
O	-1.376	8.766	13.313
O	-0.09	7.979	13.577
O	0.221	6.855	12.588
O	1.189	7.031	11.585
O	1.5	6.0	10.679
O	-0.421	5.613	12.68
O	-0.105	4.586	11.773
O	0.859	4.76	10.771
