77

O	-0.15122242298723387	5.764696329553192	-4.4723995902553195
O	-1.296985145987234	5.097787109553192	-4.965623770255318
O	-1.813753939987234	3.8444067395531913	-4.374977020255319
O	-1.0695766089872338	2.9528318595531915	-3.430138130255319
O	0.06043350401276615	3.8620980395531914	-3.241500100255319
O	0.7504173400127662	4.617432809553192	-4.331622790255318
O	-1.7472451899872339	2.3615498395531915	-2.3561561702553186
O	-1.6937546199872338	1.2208558775531915	-1.613172087255319
O	-2.4283216599872337	0.1774515465531914	-1.980392820255319
O	-1.5686622599872337	-0.9517290104468085	-1.690999182255319
O	-0.5451007935872338	-0.8808686204468085	-0.8422308297553189
O	-1.527356659987234	-0.5782779704468085	0.09383117974468114
O	-2.097447359987234	0.6152699995531914	-0.44567635525531885
O	0.5625767600127661	-1.6598401004468086	-0.5908293152553189
O	0.2295950680127662	-2.7914055604468087	-0.0968673892553189
O	1.9105506100127658	-1.3581341304468086	-0.9619220258553188
O	2.815537590012766	-2.2490082604468085	-0.39774504425531887
O	4.090835180012766	-2.2594725704468086	-0.9504626663553188
O	4.369671930012766	-0.9647213104468085	-1.409567876255319
O	3.586331590012766	-0.4817295004468086	-2.325257030255319
O	2.3082742100127662	-0.33657785044680855	-1.7465048982553188
O	1.617884780012766	0.7336835895531915	-2.240253780255319
O	2.124828830012766	1.6123542715531913	-3.244100060255319
O	2.452435000012766	-3.4620557604468085	0.12918853974468103
O	5.037582190012766	-3.008556220446809	-0.37807633025531884
O	-2.142350679987234	-1.6486996904468088	0.8175101697446812
O	0.38069193801276613	7.005139949553191	-5.510270400255319
O	2.115022920012766	6.993135639553191	-5.8162016402553185
O	-0.1428242039872339	8.277820889553192	-4.943224560255318
O	-0.31587029098723385	6.843318639553192	-6.8165889202553185
O	-3.442695859987234	-1.4346198304468087	-12.83025413025532
O	0.1320545860127661	-1.8429943204468087	-11.691235330255319
O	0.9512769600127661	0.22451108455319146	-8.627614840255319
O	4.725328320012766	-0.44436861044680864	-8.535891120255318
O	7.633920490012766	-2.882294850446809	-8.17059014025532
O	9.655752050012765	-3.860888220446809	-5.0939199302553195
O	12.917521050012766	-5.812662730446808	-4.886976850255319
O	5.216503390012766	-6.505999960446808	-8.073866990255318
O	2.157542350012766	-4.709792620446808	-6.738242600255319
O	-1.179432685987234	-4.327832730446808	-8.483692570255318
O	-4.4922428599872335	-2.7096991704468087	-7.708892350255319
O	-7.015568149987234	-5.469390770446808	-8.333196430255319
O	-10.759331549987234	-3.538238040446809	-4.415877380255319
O	-7.370791239987234	-4.623488140446808	-3.1067131902553187
O	-3.688666009987234	-4.367809800446809	-3.504277460255319
O	-1.923856659987234	-7.528789060446808	-4.646146990255319
O	1.7171914700127662	-8.288689250446808	-3.953823630255319
O	-1.846059669987234	-1.8252737704468087	10.054828969744682
O	-2.856175269987234	-2.4174765204468085	6.422061229744681
O	-3.609074089987234	-8.655048250446809	5.021416729744681
O	-3.834134679987234	-9.605134080446808	-0.7395848222553189
O	-4.004040269987234	-6.353403450446808	1.174922549744681
O	-6.740542369987234	-3.8554750404468083	1.844826729744681
O	-6.380499129987234	-1.0009655604468084	-0.6048349532553189
O	-5.451132269987234	2.5547944295531915	0.3711768897446812
O	-5.382856859987234	5.489262889553192	-2.0457812502553185
O	-2.2069656399872337	7.430091429553192	-1.1114032742553188
O	1.0928764200127663	7.176612699553192	0.8575261897446811
O	2.7862121300127662	9.586382619553191	3.1659045797446814
O	5.524387970012766	10.288305699553192	0.6151015597446812
O	3.052267240012766	11.652804319553193	-1.909091929255319
O	-0.08212517198723385	10.485275169553192	12.27748816974468
O	7.153442480012766	7.328613609553192	4.07430079974468
O	6.228474290012766	5.083473839553192	1.211174869744681
O	5.315003210012766	2.2664426595531912	3.632591559744681
O	2.816473610012766	4.506024649553192	5.440813889744682
O	-0.6159035095872338	4.597405759553191	3.735053289744681
O	-3.305026169987234	7.173530979553192	4.3659774497446815
O	-6.993847729987234	7.563282959553192	3.685609949744681
O	-6.023846549987234	7.330383389553192	9.314723169744681
O	-2.4507140999872337	6.270684399553192	8.57410119974468
O	-1.3639117489872339	2.6285667695531916	8.396059059744681
O	1.8127453800127662	0.5490250355531914	8.469807439744681
O	2.309021190012766	-1.3732478504468086	5.255657939744681
O	4.675183330012766	-3.9910845804468082	3.8511882997446807
O	5.895264110012766	-5.5580885904468085	7.031618679744682
O	9.250998220012766	-7.202718590446809	6.3679769697446815
