30

O	5.717060565948486	-0.9882384538650513	0.3155551254749298
O	5.351322174072266	-0.5184967517852783	-1.0392615795135498
O	4.721166610717773	0.8647813200950623	-0.8800687789916992
O	3.323068618774414	0.6521261930465698	-0.33866438269615173
O	3.3002219200134277	-0.6563398838043213	0.4068335294723511
O	4.593936443328857	-0.7369339466094971	1.2185518741607666
O	2.348240613937378	0.7668349742889404	-1.3693879842758179
O	0.9672470092773438	0.5964027047157288	-1.2743110656738281
O	0.33329564332962036	0.2844758927822113	-0.13642039895057678
O	-0.9978616237640381	0.10902979224920273	-0.05886530876159668
O	-1.7899094820022583	0.25162720680236816	-1.1895270347595215
O	-1.137465476989746	0.5749177932739258	-2.3637397289276123
O	0.19641956686973572	0.7374475002288818	-2.3818342685699463
O	-3.2348315715789795	0.06944414228200912	-1.1491577625274658
O	-3.8369760513305664	0.24144220352172852	-2.273221492767334
O	-3.9959769248962402	-0.2797362506389618	0.03454595431685448
O	-3.7534708976745605	-1.4813519716262817	0.6811656951904297
O	-4.503510475158691	-1.8255107402801514	1.8178105354309082
O	-5.463485240936279	-0.9596271514892578	2.263571262359619
O	-5.7062153816223145	0.2518483102321625	1.610114574432373
O	-4.974438190460205	0.5976381897926331	0.4934035539627075
O	-5.152096271514893	1.771079182624817	-0.20802617073059082
O	-6.134433269500732	2.730829954147339	0.19383147358894348
O	-2.7998147010803223	-2.3485524654388428	0.2523374855518341
O	-4.286851406097412	-2.995840549468994	2.467972755432129
O	-1.9268710613250732	0.7284645438194275	-3.545851230621338
O	6.997784614562988	0.08680111914873123	0.816408097743988
O	6.286376476287842	1.733577013015747	0.8452762365341187
O	8.153785705566406	0.03898707777261734	-0.13382159173488617
O	7.404282093048096	-0.29712697863578796	2.2104392051696777
