85

O	0.7283811394561395	2.856012374105263	-2.5618628617543857
O	-0.2310766485438605	2.378671244105263	-1.6635651897543857
O	-0.1959298644438605	1.2870842101752629	-0.8865080844343859
O	-0.0008964605438605	0.2831712541052629	-1.5558883417543858
O	-0.1603283500438605	1.326074239105263	0.5699373582456141
O	-0.8192923115438604	2.5138097741052627	0.9647330582456141
O	-0.9756423895438604	3.647247134105263	0.15794377824561423
O	-1.0221712745438605	2.710921924105263	2.291681008245614
O	-0.5628083995438605	1.7094964421052627	3.1555064282456144
O	-1.2987116435438604	1.5546856891052627	4.306722358245614
O	0.3550226844561395	0.7088366971052629	2.747324988245614
O	0.9026638364561395	-0.5790417358947371	3.7629425582456144
O	0.6455572364561395	0.5178221991052628	1.3883071882456144
O	1.8315222164561396	-0.17478530589473706	0.7744836582456142
O	2.4252523564561397	-0.07323832589473711	-0.5626210487543859
O	3.971455036456139	-0.38882180589473725	-0.6464536187543859
O	4.87219856645614	-0.9787212658947373	-0.17042085075438584
O	4.67457777645614	0.8050721851052629	-0.5813076217543859
O	4.13233169645614	2.050198382105263	-0.44905701475438586
O	4.15860830645614	2.709566084105263	-1.770679244754386
O	3.8743697264561394	2.0291648431052627	-2.9822240717543855
O	3.5232490264561394	2.8365728141052626	-3.995179731754386
O	2.9712129264561398	1.006748489105263	-2.6360645117543857
O	3.0548196664561393	-0.1367458358947371	-3.335027041754386
O	4.0587161064561394	-1.135563855894737	-3.311005711754386
O	2.3433436564561396	1.8336181901052628	-1.608037657754386
O	2.8214615164561394	2.1645809261052626	-0.2830514247543858
O	2.0178070264561394	2.6811659641052628	0.7032027182456141
O	1.8543632764561395	3.9737006241052626	10.712712068245615
O	-0.9161968615438605	4.131520894105263	8.157160758245615
O	3.2654369264561396	7.275460664105263	7.279756398245614
O	2.5593205264561396	4.564644244105263	4.689260918245614
O	0.3390483434561395	6.540307254105263	2.681577318245614
O	2.7134093164561395	9.655358324105261	2.8764773182456143
O	5.340865206456139	7.364076274105263	1.472225188245614
O	2.9178075864561395	6.290882264105263	-1.3287602527543858
O	2.3678037064561397	9.859686784105262	-2.0778451817543857
O	6.060651956456139	10.779669854105261	-2.151574681754386
O	6.5002646864561395	7.862059324105263	-4.628512671754386
O	4.0131027464561395	9.099847464105263	-7.193100421754386
O	-4.439658013543861	11.784624594105262	2.8438181982456143
O	-7.48437196354386	5.908236444105263	5.4679894182456135
O	-4.27469612354386	8.564848954105262	-0.12006963675438587
O	-3.8516311035438604	9.644686794105262	-3.763721661754386
O	-0.3942926875438605	8.082144914105262	-3.897832331754386
O	1.2570032664561395	5.503877974105263	-6.267218041754386
O	-1.5918980335438604	2.9599949041052627	-6.001981051754386
O	-0.6302196645438605	-0.8315095258947374	-6.262978511754386
O	-1.4180580835438605	-3.1291618458947372	-9.255100231754385
O	-2.8904615335438604	-6.603187225894737	-8.677336611754386
O	1.9507852464561397	-5.549897425894737	-6.347657801754386
O	-0.8640244045438605	-6.178599415894737	-3.866485731754386
O	-0.0243160865438605	-9.873744005894737	-3.8715107417543857
O	3.7352817164561394	-9.116673905894737	-3.693149031754386
O	3.8316322264561395	-6.304372625894737	-1.1955257617543857
O	1.0709414064561396	-7.337947735894738	1.1112404882456142
O	1.8416138364561396	-10.933177405894737	1.9185512282456143
O	3.5278926564561397	-13.469459505894738	-0.3619665537543859
O	7.08545796645614	-12.077111005894738	-0.37752034175438587
O	9.175025656456139	-12.351921205894739	2.746291308245614
O	9.859853016456139	-9.200839805894738	4.6517640882456135
O	6.91415322645614	-1.9264138558947372	14.556805068245614
O	7.400433136456139	0.8340644301052629	11.927367168245615
O	11.17365361645614	0.8215880121052628	12.347147868245615
O	9.40807833645614	-2.128211365894737	8.147366878245615
O	6.17627822645614	-3.9471230158947366	8.944865598245615
O	4.07568574645614	-1.1184691058947374	10.385806668245614
O	1.1648612164561396	-1.948563955894737	8.065519508245615
O	0.24688627845613947	-4.902634315894737	10.238117868245615
O	-9.69401191354386	-4.347401135894737	2.910143078245614
O	-6.907414403543861	-2.5967933458947368	0.9348891682456141
O	-8.62196529354386	-1.0383234258947371	-2.149191001754386
O	-6.063818283543861	0.2150392741052629	-4.676071631754386
O	-2.3386047835438606	2.0865741991052627	-9.802788751754385
O	-2.0190125835438604	3.9312911441052627	-13.106136231754386
O	-0.7209702535438605	0.6349899191052628	-14.456241031754386
O	-3.7392229035438604	-1.592481695894737	-13.621394331754386
O	-9.529013423543862	-5.402576645894737	-3.433856961754386
O	-7.05507526354386	-7.237912105894737	-1.153334512754386
O	-7.575654823543861	-10.353127005894738	-4.177727181754386
O	-4.370605733543861	5.706660554105263	-4.838689811754386
O	-4.96207067354386	3.296500564105263	-1.8844361927543858
O	-7.77429570354386	2.993239294105263	0.6869284082456141
O	-6.970623473543861	1.041833306105263	3.813182978245614
O	-10.705406983543861	0.09022437410526285	5.072749938245614
