28

O	19.439	35.715	7.983
O	19.57	34.898	6.815
O	18.363	34.603	6.258
O	17.324	35.064	6.728
O	18.324	33.73	5.0
O	17.356	32.733	4.906
O	16.443	32.569	5.9
O	17.331	31.879	3.809
O	18.287	32.034	2.81
O	18.299	31.187	1.746
O	19.247	33.035	2.911
O	20.387	33.207	1.621
O	19.286	33.9	4.005
O	20.342	35.008	4.099
O	21.683	34.457	4.591
O	22.769	35.534	4.624
O	23.291	35.933	3.584
O	23.065	35.993	5.839
O	23.991	36.916	6.097
O	24.808	37.445	5.101
O	25.814	38.353	5.421
O	26.54	38.802	4.533
O	26.01	38.742	6.743
O	27.015	39.599	7.065
O	26.575	40.961	7.032
O	25.19	38.219	7.741
O	24.186	37.312	7.418
O	23.461	36.862	8.305
