28

O	-3.5772483348846436	-3.359632730484009	1.6734827756881714
O	-3.2768540382385254	-2.227067708969116	0.890222430229187
O	-3.6216301918029785	-0.9644221663475037	1.3026378154754639
O	-4.226327896118164	-0.8584083914756775	2.425833225250244
O	-3.325885057449341	0.22641636431217194	0.5127276182174683
O	-3.7178666591644287	1.4681305885314941	1.0096194744110107
O	-4.348515033721924	1.4884467124938965	2.2429938316345215
O	-3.4675991535186768	2.5906107425689697	0.27199625968933105
O	-2.8462066650390625	2.5355613231658936	-0.9376263618469238
O	-2.5798468589782715	3.680248260498047	-1.7132099866867065
O	-2.4531655311584473	1.3117941617965698	-1.441141963005066
O	-1.7080000638961792	1.1876698732376099	-3.023385763168335
O	-2.6953065395355225	0.14711040258407593	-0.7044753432273865
O	-2.2635505199432373	-1.1281232833862305	-1.2649633884429932
O	-1.1432933807373047	-1.7477518320083618	-0.5961516499519348
O	0.13766829669475555	-1.1107624769210815	-0.4542686939239502
O	0.34761473536491394	0.058737922459840775	-0.8428370356559753
O	1.2789027690887451	-1.7596839666366577	0.14207395911216736
O	2.5190939903259277	-1.0614697933197021	0.24696162343025208
O	2.6790740489959717	0.23265929520130157	-0.20658010244369507
O	3.8530547618865967	0.9377946853637695	-0.1249266192317009
O	3.9954097270965576	2.2394485473632812	-0.5867317914962769
O	4.94754695892334	0.318916380405426	0.4461870491504669
O	6.167956829071045	1.001613736152649	0.5505625605583191
O	7.276383876800537	0.36271432042121887	1.1336604356765747
O	4.837873458862305	-0.9739332795143127	0.9144773483276367
O	3.6299331188201904	-1.6505056619644165	0.8114706873893738
O	3.580782175064087	-2.9461116790771484	1.2989774942398071
