66

O	-0.7717376084807696	-4.364997309709615	-3.46118055035
O	-1.7530825944807695	-3.416039489709616	-3.5607558603500005
O	0.4408543375192304	-3.316947639709616	-3.98199270035
O	-0.1546499924807696	-1.658474919709616	-3.70843129035
O	-1.3714292904807697	-2.086836569709616	-3.2372076203500004
O	0.5318647475192304	-0.4091120897096159	-4.08542452035
O	0.4160430975192304	0.3453548492903841	-5.21356076035
O	-2.2076683974807696	-1.0482804897096158	-2.7462098503500005
O	-1.7525717094807696	0.009311941290384151	-1.9609628603500002
O	-1.8678142784807696	1.3687558332903842	-2.43903901035
O	-1.3820370324807696	2.423598100290384	-1.7342230503500002
O	1.0591621775192306	0.26374721929038414	-3.13146244035
O	-1.9828292864807695	1.5076791792903843	-3.6567691503500006
O	-3.5522136124807697	-4.110695129709615	-3.37902404035
O	5.170879847519231	-11.354334589709616	3.05383736965
O	5.73408206751923	-8.689205829709616	0.38779844964999977
O	2.6790526075192305	-9.695970289709617	-1.64383498035
O	1.4660673675192304	-13.264354689709617	-2.1970391403500003
O	-2.1707032264807697	-12.100597489709616	-2.3930773503500005
O	-2.1718523674807697	-9.790069389709616	0.6298890396499999
O	2.0741204975192304	-9.158637249709617	8.06336889965
O	-0.018605742480769516	-6.766168629709616	10.15007876965
O	0.7057449475192303	-3.4550377597096156	7.88551917965
O	2.7497416875192306	-3.9071666197096158	4.68994416965
O	5.85904195751923	-1.8435009997096157	4.05111944965
O	3.61950635751923	5.972861490290384	6.02926161965
O	1.6231939975192304	6.644063640290383	2.8465092696499994
O	4.070293847519231	5.512828180290384	0.17651522964999977
O	7.62001511751923	6.328866310290383	-0.8925497863500002
O	10.43375984751923	3.793633640290384	-0.6433294181500002
O	10.59994764751923	3.713322180290384	-4.43743111035
O	7.55713223751923	4.073424800290384	-6.64958680035
O	7.328134017519231	3.460472050290384	-10.38281585035
O	10.93984344751923	2.274699310290384	-10.39713946035
O	10.44501644751923	-0.4094745697096158	-7.73060759035
O	11.26737094751923	-0.7327218297096159	-4.03251290035
O	7.893344867519231	-0.782822879709616	-2.2986400403500005
O	9.29619984751923	-0.5581229497096158	1.2024270796499998
O	5.38043380751923	10.376692470290383	5.91319787965
O	0.05929542751923034	9.787214780290384	-2.67861231035
O	0.38357687751923053	7.565283540290384	-5.80163991035
O	-0.018753242480769483	3.849253100290384	-5.57404855035
O	-3.6427323924807697	2.880126700290384	-6.47395860035
O	-4.125184432480769	6.665895520290384	-6.51376468035
O	-5.63731096248077	9.444223530290383	-4.43665513035
O	-4.28925958248077	12.534555710290384	-2.62511267035
O	1.1726929775192305	1.302004458290384	6.17407799965
O	1.7847342175192304	1.8579151402903842	2.5464119396499996
O	3.2994355175192305	-0.8643789897096159	0.32606475364999987
O	0.6844973675192305	-3.6146517897096158	0.9012895396499998
O	-1.0946948444807696	-1.9284682397096158	3.74120281965
O	-4.63477452248077	-2.002365599709616	2.33150501965
O	-5.29868850248077	0.5187237282903842	-0.4433837623500002
O	-3.8791091824807697	3.831553660290384	0.6338828196499999
O	-3.7781103024807696	2.6740264902903843	4.26803600965
O	-7.41556118248077	1.5807004542903842	4.08835164965
O	-8.41882803248077	4.951552590290385	2.6600369496500003
O	-12.74337605248077	-5.350636389709615	6.05161010965
O	-7.99929235248077	-6.940287229709616	6.9551653596500005
O	-8.668773962480769	-7.847122509709616	3.32412795965
O	-8.976803142480769	-5.434536229709616	0.4139223896499997
O	-9.09178542248077	-2.1606565797096158	2.35317342965
O	-9.45881683248077	0.5967225671903842	-0.24994076035000018
O	-8.26390585248077	-0.7270482497096158	-3.60109648035
O	-10.01489309248077	1.3706505982903843	-6.24493663035
O	-10.08534057248077	5.8170709302903845	-3.50661124035
