24

O	55.398315784993635	75.93053632204588	-5.984470067650015
O	55.23713102587307	76.98816385542865	-4.953519294720978
O	54.213489016038906	77.92713165058477	-4.913663458501191
O	54.12574241528074	78.90027505745006	-3.8992250062530998
O	54.97465899356627	78.8988964031059	-2.840107414786532
O	55.8405624945472	77.8161784753227	-2.7806731765000405
O	56.11977277252227	77.03590997763438	-3.8992316329629517
O	57.0909345739519	75.89626406567398	-3.8410571090307033
O	58.36022855801469	76.49334301438734	-3.481661341339349
O	59.62136376588203	76.71613075617829	-4.251506240697293
O	60.05274243131824	75.38887883074239	-4.791235384125178
O	59.00456894463617	74.78859083752641	-5.598141233017621
O	59.320035089649444	73.74198433696066	-6.614021996008406
O	60.46946389302252	74.42901956745816	-7.359498501942275
O	59.7002891444566	75.30328777983578	-8.326363303443102
O	59.511694114413864	76.58944343279988	-8.161458989476188
O	58.639770461136926	77.18711414769786	-7.0975562633283555
O	57.2344767917939	76.72489986984792	-7.542061466265263
O	54.269535423948994	75.57422102531517	-6.485909531667664
O	53.15255818758016	77.75576310573216	-5.789130079549249
O	54.87054627609488	79.66915933943719	-1.7061522839427217
O	57.03920841655433	77.77741443299517	-1.5388135762814255
O	58.83224111313795	75.83306936407608	-2.5536609422102954
O	56.61592766653615	75.78486423601726	-6.68712152991997
