24

O	0.3571280539035797	-2.5033528804779053	-0.4579112231731415
O	1.4378877878189087	-1.5722376108169556	-0.16689905524253845
O	2.5809102058410645	-2.0558419227600098	0.49033820629119873
O	3.6542701721191406	-1.2576037645339966	0.8094696402549744
O	3.626310110092163	0.07932358980178833	0.47795459628105164
O	2.538468837738037	0.5853308439254761	-0.15856117010116577
O	1.4483938217163086	-0.23591892421245575	-0.4801456034183502
O	0.3462378978729248	0.4751599133014679	-1.1749070882797241
O	-0.011246833950281143	1.7378013134002686	-0.48763158917427063
O	-0.1499408334493637	1.7531449794769287	0.998339056968689
O	-1.425851583480835	2.548433780670166	1.2932488918304443
O	-2.387233018875122	2.2311229705810547	0.17894750833511353
O	-3.75478196144104	2.774655342102051	0.37742912769317627
O	-4.814016342163086	1.7075163125991821	0.3594346046447754
O	-4.412386417388916	0.5461527109146118	-0.5092472434043884
O	-3.6263654232025146	-0.4265845715999603	-0.08062562346458435
O	-3.208348274230957	-1.587209939956665	-0.9059574604034424
O	-1.7542680501937866	-1.4410977363586426	-1.2872735261917114
O	0.7626228928565979	-3.6882824897766113	-0.7533442378044128
O	2.702124834060669	-3.3976244926452637	0.8668962717056274
O	4.722466945648193	0.8813472986221313	0.8070406913757324
O	2.5547540187835693	2.2909939289093018	-0.5569013953208923
O	-0.20209500193595886	2.782656192779541	-1.0734671354293823
O	-0.985041618347168	-2.2278852462768555	-0.4405331611633301
