13

O	-13.851001739501953	4.979824542999268	-14.370326042175293
O	-14.581371307373047	3.959188938140869	-14.774099349975586
O	-12.996875762939453	4.680793285369873	-13.123090744018555
O	-13.886954307556152	6.205359935760498	-15.065216064453125
O	-15.366981506347656	4.113170146942139	-15.91897964477539
O	-13.761505126953125	4.064945220947266	-12.11504077911377
O	-12.394014358520508	5.986012935638428	-12.610106468200684
O	-11.351921081542969	5.626112937927246	-11.705825805664062
O	-11.827383041381836	6.803974151611328	-13.774738311767578
O	-11.032968521118164	7.882787704467773	-13.295605659484863
O	-13.061958312988281	7.315678596496582	-14.570554733276367
O	-12.660332679748535	8.145830154418945	-15.807367324829102
O	-11.987432479858398	7.348050117492676	-16.761226654052734
