85

O	0.5426783324166666	2.381743985777778	-1.1416191888263882
O	0.26347461341666667	3.4493707657777772	-1.8489139578263885
O	0.9996769324166666	0.9986833897777776	-1.4070282978263884
O	-0.32923773858333333	2.2730319357777775	-0.044043577826388236
O	0.5697318424166666	4.625376825777778	-1.3626392618263883
O	0.09988525441666662	0.5430412217777776	-2.3459240578263882
O	0.8083744924166667	-0.037966813222222395	-0.36096173982638824
O	1.4800901224166665	-1.2122217942222224	-0.5240722344263883
O	0.6043400624166666	0.21874707577777763	1.0887158721736117
O	1.6489965824166666	-0.3842214042222223	1.703341952173612
O	0.11340836141666666	1.5404649147777776	1.1491469821736118
O	-0.15453320358333333	2.4443210857777777	2.264968662173612
O	0.8137628024166665	2.6165270457777776	3.227812172173612
O	-10.174317957583332	-5.293610594222223	-0.6511478433263883
O	-6.451885567583334	-5.265402514222223	-1.4776590168263883
O	-3.195495197583333	-6.848029874222223	-0.2656536378263883
O	0.3470796204166666	-7.427675344222223	-1.5626915428263883
O	2.472993532416667	-10.557165454222222	-1.4308627198263881
O	5.447767372416666	-9.478180954222223	0.6566855421736116
O	3.2221900124166662	-7.632684724222223	3.1072629921736117
O	1.0786310224166666	-10.641808954222222	4.024071922173611
O	14.576081902416668	-5.638934364222223	5.458745542173611
O	13.095030902416667	-1.0830839242222223	8.610519462173611
O	-0.0888394275833333	-9.491738554222223	-5.9186149878263885
O	2.123822352416667	-12.269190254222222	-7.105340547826389
O	-1.0245836605833334	-7.038334024222222	-9.49581464782639
O	4.502089632416666	-6.357816284222222	-9.55341547782639
O	4.086699812416667	-4.935359944222222	-6.035030097826389
O	7.718755772416666	-4.181230464222223	-5.213926447826388
O	1.2365957724166667	-4.456350894222223	-14.47933923782639
O	2.8523159624166663	-2.2526225042222228	-11.844120537826388
O	1.8811737624166665	-0.9199112142222223	-8.476864517826389
O	3.042622992416667	2.7294654857777774	-8.168447967826388
O	6.042248342416666	2.969688705777777	-10.490426817826389
O	6.759243462416666	6.436528475777777	-9.017534527826388
O	7.412569092416667	4.832488755777778	-5.630712367826389
O	9.450299302416667	1.9784449257777776	-7.118008557826388
O	11.918616502416667	7.460078565777778	-6.704969667826389
O	11.456365402416667	6.004348885777778	-3.210015717826388
O	13.893837102416667	4.516576145777778	1.8102619321736118
O	12.541157702416667	1.4106644687777776	0.01796528917361173
O	-1.5481485955833334	0.09786955477777759	-14.240864237826388
O	-1.7019500975833333	1.6863995287777778	-10.762613637826389
O	-0.41237102058333336	5.098075875777777	-9.636049967826388
O	0.031169907416666698	6.750148485777777	-6.263801447826388
O	-1.5614699595833335	10.231815915777778	-6.001862987826389
O	-5.905662457583333	2.416144655777778	-11.178700637826388
O	-5.476370817583334	5.333078285777777	-8.816499697826389
O	-4.345934417583333	4.959561605777777	-5.194412757826389
O	-5.170801347583334	7.824447525777777	-2.842899677826388
O	-4.455643147583333	8.464304125777778	0.8605604721736116
O	-3.6021496375833335	12.052367545777777	1.690112002173612
O	-3.2023990675833334	15.739590045777778	0.8322867521736118
O	-1.1687772095833333	7.116994955777778	12.634234262173612
O	1.1563998224166667	7.677197145777777	9.62700536217361
O	-0.8657688955833334	11.847869545777778	6.9328178821736115
O	-3.455623037583333	14.622061045777777	6.632654212173612
O	-9.607045157583332	3.3789140857777777	-6.880022427826389
O	-7.2014670875833335	0.5115292227777777	-6.374526137826389
O	-6.275170167583334	1.5248425557777776	-2.7869748778263883
O	-7.683776607583334	3.8286120657777776	-0.16858841982638828
O	-7.418440767583333	3.304144915777778	3.598200892173612
O	-5.930817077583334	4.483931755777777	6.886522232173611
O	-3.6259905175833334	3.417639695777778	9.688099962173611
O	-10.633661027583333	-1.3329899442222224	-3.142627517826388
O	-9.945763457583332	-0.8355605642222224	0.5476276021736116
O	-6.303986147583333	-1.0495533142222224	1.588017692173612
O	-6.123308127583334	-3.4895576342222228	3.3001305921736117
O	-8.013673917583333	-6.725259414222222	4.080598782173611
O	-5.4132026775833335	-7.419427884222223	6.808361052173612
O	-3.036813827583333	-5.505188784222223	9.038113082173611
O	0.3248685514166666	-6.295629624222222	7.490047282173611
O	4.020508592416666	-5.396923344222222	6.993400012173612
O	3.9579372224166667	-1.6401491142222222	6.241637392173612
O	7.287609122416667	-1.5513551542222224	4.377621352173612
O	9.915427202416668	0.5908786347777777	6.166613982173612
O	7.478337572416666	1.1703746747777777	9.02100551217361
O	7.176039852416666	-2.596210834222222	9.653802462173612
O	3.7097016324166665	-0.8355160442222223	13.741589862173612
O	1.1990735624166666	0.5554269797777777	11.250205962173611
O	-2.1372538275833333	-1.2332958742222224	10.950522062173611
O	-4.224648197583333	-0.6151581542222224	7.790420592173611
O	-6.510167887583334	-3.641433554222223	7.928174952173611
O	-10.256492217583332	-3.8967159542222225	8.212841712173612
O	-9.265390157583333	-7.193448814222222	9.892302662173611
