80

O	-2.282956048328571	0.7300442569142858	0.3425132013571425
O	-0.9100091243285708	0.4295153542142858	0.4040842563571425
O	-0.27292299632857087	0.9487993322142858	-0.8037833266428575
O	0.1416642936714292	0.2664963162142858	-1.9000189236428575
O	0.9712851836714291	1.6911547412142858	-0.42089544764285747
O	1.6660953636714293	1.0582225062142858	0.6298104043571425
O	-0.35430593632857077	1.0582933102142857	1.6147268763571425
O	-1.1140056543285708	1.9427991702142857	2.499930686357142
O	-0.4743211983285709	3.197238860214286	2.3912059163571424
O	1.0116954036714292	1.3430879622142857	1.7909827863571426
O	2.6612615236714294	-11.283137569785714	0.8961779173571426
O	2.013733583671429	-8.279192839785715	-1.3647565136428574
O	-0.7824698683285708	-6.8809601497857145	-3.588260553642858
O	-1.148124991328571	-4.297712749785714	-6.419614003642858
O	-3.045631536328571	-4.674333599785714	-9.712728783642858
O	-5.620891476328571	-1.8542927097857143	-9.411999693642857
O	-6.3561794563285705	-2.680703299785714	-5.746968593642857
O	-7.318861956328571	-6.344824549785715	-6.291340713642858
O	-12.000934126328572	7.061750460214285	-9.183730883642857
O	-12.730928926328572	8.406617490214286	-3.463454703642858
O	2.219385053671429	-5.5229150497857145	-9.765559823642857
O	6.353680263671429	-4.285273519785714	-9.196999273642858
O	4.62944592367143	0.4489066812142858	-11.548358213642857
O	2.196801733671429	0.5776638982142858	-8.682398903642857
O	0.3693620836714291	3.778202630214286	-9.739786823642858
O	10.73795087367143	-0.41887865978571426	-10.861641513642857
O	8.564245103671428	1.858622580214286	-8.705663563642856
O	6.28688275367143	1.592601288214286	-5.681018253642858
O	6.529508203671429	4.629966670214285	-3.361300753642858
O	7.606105783671429	7.287144710214285	-5.865795323642858
O	7.18798278367143	9.917023690214286	-3.049222093642858
O	3.4256773436714294	9.076117490214285	-2.9171138636428577
O	3.1230625536714296	9.081846510214286	-6.737577893642857
O	3.548336943671429	14.307723530214286	-3.838938723642858
O	0.13225207367142922	12.734388230214286	-3.0437957836428575
O	-5.464902356328571	13.144986430214285	-3.1365311736428576
O	-4.342982846328571	10.420109990214286	-5.579159903642858
O	12.95190397367143	0.09349993821428582	-5.973218513642857
O	10.46238467367143	0.5131853342142858	-3.1206916536428575
O	10.017685573671429	3.500855790214286	-0.7764684656428574
O	7.424357333671429	4.434150270214285	1.8284212763571426
O	8.84996617367143	5.359267460214285	5.203955786357143
O	12.643915773671429	-2.261769849785714	-0.7028407326428574
O	11.34435577367143	-0.3881709897857143	2.3239455163571425
O	7.6914386736714295	-0.12931964878571423	3.2081230563571426
O	6.863586543671429	0.7805145452142858	6.815603236357142
O	3.535882223671429	1.2443697812142858	8.791033476357143
O	3.670745653671429	4.1162042502142855	11.187224986357144
O	5.473379993671429	6.562079600214285	13.425470486357144
O	-8.242897116328571	2.118528720214286	11.519571786357144
O	-6.155815266328571	4.520804240214286	9.349107526357143
O	-1.7654716533285708	5.443986010214285	12.135187286357143
O	0.2229534436714291	5.160666210214285	15.377295386357144
O	10.670929673671429	-5.126886239785715	3.8404588663571424
O	8.29880466367143	-4.9890388497857145	0.8246711023571426
O	5.224511883671429	-3.9775562297857143	2.8877094063571422
O	4.216498463671429	-3.9849470597857137	6.553449226357142
O	0.667184323671429	-4.4685313797857145	7.759999496357143
O	-2.335450645328571	-2.773378799785714	9.387156396357144
O	-5.957349316328571	-1.827400289785714	8.797458776357143
O	6.227415413671429	-8.976900709785715	2.8058555463571424
O	2.9001324636714294	-8.585675919785714	4.546926926357142
O	0.618609163671429	-5.883730689785715	3.0761983763571425
O	-1.7399543103285708	-7.426501229785714	2.1185527863571423
O	-2.746480556328571	-10.954598769785715	1.1132521463571425
O	-6.3033332163285705	-9.655477169785714	0.6251554993571425
O	-8.58935281632857	-6.884395909785715	1.8571591263571425
O	-8.70822844632857	-4.589142219785715	-1.1760419036428573
O	-9.349826926328571	-1.1402371097857142	-2.7070351036428577
O	-7.425590006328571	1.217618265214286	-0.4562392876428575
O	-7.067229266328571	4.121034480214286	-2.9206276036428576
O	-8.925998976328572	7.278424920214285	-1.8004240636428575
O	-10.351784626328572	5.360846050214286	1.2269711163571426
O	-11.981679026328571	2.827985480214286	-1.1254675536428573
O	-13.511256226328571	1.0754579832142859	3.9091259263571425
O	-9.98026130632857	-0.028566958785714247	5.012720386357143
O	-9.11686569632857	-3.7095626797857144	5.3172490363571425
O	-5.379338496328571	-4.633660119785715	5.321571146357142
O	-5.658668706328571	-8.323730419785715	4.3684922463571425
O	-7.457576296328571	-12.811747669785715	4.241519946357142
