32

O	-36.282619447225386	2.5475322920500187	22.99358595250541
O	-36.42152969184159	3.772250249901986	22.200195444638886
O	-36.94006925725107	3.227643493568996	20.853338528775502
O	-36.07797722255552	2.136181426714408	20.511241457104877
O	-34.74944943299353	2.4438773153950817	20.99718082224279
O	-33.8705791821325	2.0398911215231195	20.03648453538988
O	-34.33497307921607	1.4669766471239565	18.912964532618624
O	-33.5454645115533	1.3359025972377747	17.8115110256659
O	-32.18679549708797	1.6025487518523196	18.014197329291015
O	-31.617571332783495	2.2062281275804523	16.874921563376454
O	-31.68819854238547	1.8145814530308515	19.254271016881777
O	-32.573451421582526	2.106122974945462	20.271472231756693
O	-32.14393997871226	2.9073284823221894	21.388024922165926
O	-32.96891139418106	3.710033427110213	22.28621121584991
O	-34.282009859372025	3.3490591612759104	21.93439568101128
O	-35.111996936900745	4.410131196052265	22.206665605898092
O	-34.84327590732199	5.155674097869456	23.419444893676758
O	-36.084079291088486	6.02083140882076	23.28975295928136
O	-36.963504512141256	5.034419255683917	22.701927135371516
O	-38.22801672811635	5.244325550020878	23.040099080406268
O	-37.03484467497118	5.379777685787786	21.205758413025073
O	-36.116741698198446	5.015407772381837	20.297124984320035
O	-35.407233596278175	6.263289450908787	19.88991281921339
O	-36.017858663111646	7.520439915392027	20.323278388723704
O	-35.323416491075555	8.430236527397746	21.07034239015882
O	-34.20571069812562	7.858709072257268	21.604064865061158
O	-33.523225586657965	6.795245131795171	21.039401297551
O	-34.1287887979827	5.987693071294981	20.12643823763432
O	-33.77259833635392	4.943287667237126	19.30750994453205
O	-32.573759927516946	4.804239138502873	19.747148983408955
O	-34.86997323605738	4.339264940830978	18.8945441072082
O	-33.184557418153396	4.378249983626216	18.366893445261123
