99

O	2.930218461401695	-0.6495929002542372	-2.462803771033899
O	1.8982277314016949	-1.5924221502542375	-2.466170021033899
O	1.288258651401695	-2.2322090102542376	-1.375030140033899
O	1.4346914614016948	-1.5324228402542373	-0.23503111203389881
O	2.589166701401695	-0.7310265902542373	-0.2523580610338988
O	3.147355101401695	-0.03097276525423731	-1.3239735960338987
O	-0.01787703359830506	-2.7658450502542373	-1.4452380870338988
O	-0.5554295665983051	-2.1212108502542373	-0.3327430970338988
O	0.17152153840169498	-1.0011484202542373	-0.0761127590338988
O	-0.840200655598305	-2.3128533602542376	-2.6929398010338987
O	-2.036760258598305	-2.0930795602542376	-0.0984471230338988
O	0.20128941440169495	-0.23797580825423736	1.0312895489661011
O	4.363504341401694	0.3058392937457627	-0.8139044680338988
O	5.150421661401695	1.3400433127457627	-1.0061668270338988
O	4.666978291401695	2.6068280897457625	-0.9251612120338988
O	6.0907042914016944	1.2573724287457626	-0.02384026003389883
O	5.580305081401694	1.4122490827457628	-2.3055368310338986
O	0.517702273401695	-1.3475525302542373	2.088811958966101
O	0.06615395740169494	-2.5716638902542375	1.6837894189661011
O	0.7657371414016949	-3.735111250254237	1.6467045589661014
O	2.102464541401695	-3.531136570254237	1.6062927989661013
O	2.569520371401695	-2.5674050702542375	2.546949648966101
O	1.841511091401695	-1.3793330302542373	2.378078458966101
O	2.619646061401695	0.09225641674576268	2.660613808966101
O	-0.16373669959830506	-4.609822110254237	2.251375458966101
O	-0.05240050459830509	-5.929972300254237	1.9639068789661012
O	-0.4023205104383051	-6.9257514502542366	3.0643828289661013
O	-0.7172910315983051	-6.024697230254237	0.6755101789661011
O	-0.5483633735983051	-7.099200030254237	0.11552748696610116
O	-1.522254278598305	-5.102646030254237	0.06133685196610117
O	-0.5676230705983051	-2.9986996202542375	-3.662274741033899
O	-0.7976552405983051	-2.2236623202542374	-4.749089951033898
O	-0.697630371598305	-0.9309110602542373	-4.478728391033899
O	-0.886274698598305	-1.0079672202542374	-3.145272521033899
O	0.004352733401694953	0.2223978537457627	-4.817505401033899
O	0.5308571834016949	1.1415879687457626	-3.9518976310338987
O	0.1800202714016949	0.9556719097457627	-2.614199011033899
O	-0.8684375325983051	0.14016147374576265	-2.357511701033899
O	1.774619151401695	1.6581844797457626	-4.352334011033899
O	2.655175161401695	2.3925991997457627	-3.555219381033899
O	-8.958838928598304	-1.6182862702542375	-4.787077351033899
O	-10.348139988598305	1.9260106897457625	-4.610957221033899
O	-10.506799608598305	4.262903919745763	-1.6232774000338988
O	-14.251784208598304	3.6015178397457626	-1.4664233450338988
O	-13.866820108598304	-0.1706198582542373	-1.108338456033899
O	-11.019259008598304	0.4001662267457627	1.3057384489661013
O	-12.935874608598304	2.7550811097457624	3.554913728966101
O	9.656413991401696	-11.243541380254237	3.799596308966101
O	7.3826294214016945	-8.303327630254238	4.440228898966101
O	9.789439391401695	-5.913714090254237	2.6398282389661016
O	9.824252791401696	-8.165445440254237	-0.4082412150338988
O	6.026757651401694	-8.182273620254238	-0.3932833430338988
O	5.816806861401695	-4.409823060254237	-0.6327244080338988
O	8.442108691401696	-4.783052650254237	-3.4779392410338987
O	6.205167231401695	-7.078598120254237	-5.245202901033899
O	3.093254961401695	-4.875413840254237	-4.719157601033899
O	5.013758011401695	-1.8032551602542375	-5.841954131033899
O	5.981969351401695	-3.2470803102542374	-9.118535821033898
O	2.382429021401695	-4.197191520254237	-9.643650321033899
O	1.260618261401695	-0.6767778502542373	-8.674180641033898
O	3.753081591401695	0.7339265747457626	-11.094127641033898
O	2.095070061401695	-1.3608786102542374	-13.797745441033898
O	-1.361857496598305	-0.1827825692542373	-12.755162641033898
O	-0.31629652229830507	3.4487365897457627	-12.6172671410339
O	6.293610161401695	6.501198939745763	-6.582752191033899
O	4.703631971401695	9.802658229745763	-5.537444491033899
O	1.479657191401695	8.233228759745762	-6.865548031033899
O	2.076491581401695	5.073906729745763	-4.988136581033899
O	2.226696541401695	6.738792259745763	-1.595067065033899
O	-0.8542843345983051	8.740380189745762	-2.468642861033899
O	-2.920117778598305	5.655548619745763	-3.3051747210338984
O	-1.365374242598305	3.8888820297457625	-0.3156283230338988
O	-2.928946298598305	6.441687389745763	2.0797382989661015
O	-6.2961553485983055	5.270440489745763	0.7969748989661012
O	-5.544321328598305	1.8942964597457626	2.324518008966101
O	-4.281644958598305	3.2548690797457627	5.605395248966101
O	-5.707986698598305	4.606605549745763	8.812031758966102
O	-3.483266098598305	2.2203191097457626	13.2116493589661
O	-2.591672468598305	0.1041028997457627	10.1965569589661
O	-3.026685788598305	-0.6766109302542372	6.566356688966101
O	-5.0471501485983055	-3.0511922602542376	4.449377398966101
O	-3.441548958598305	-5.735400440254237	2.677555978966101
O	-3.896607828598305	-8.921440530254237	0.4249778189661011
O	-6.272773258598305	-7.057404780254237	-1.7467511530338988
O	-8.155358548598304	-5.955427930254237	1.3825507889661013
O	-8.451303938598304	-9.356738130254238	3.0703607389661016
O	-5.9165578485983055	-8.512327410254237	5.758557448966101
O	-4.915437308598305	-5.593207270254237	7.940832288966101
O	-1.3677363695983051	-5.235275940254237	9.3021392589661
O	-0.9929457785983051	-2.9065291802542372	12.2533030589661
O	1.2703604514016948	0.1319449497457627	12.2334126589661
O	6.638742411401695	2.1082464797457625	6.562277098966101
O	6.901982751401695	7.849871079745763	7.014116458966101
O	3.9604167414016955	6.781399079745763	4.863547278966101
O	1.583403281401695	6.366899769745763	7.8453931389661005
O	8.738945661401695	10.429782619745763	1.2627560889661014
O	10.284259991401695	9.128692879745763	-1.9422255610338988
O	12.606434091401695	6.001628199745763	0.9490977689661011
O	15.535155691401696	-5.1401079602542366	-5.961164881033899
