40

O	14.846216582681134	4.9733071097552415	15.347687882580974
O	13.996209787384098	5.484647042289137	14.362820828382466
O	14.236259049730215	5.638946680755655	12.987850385823942
O	15.205524804045202	4.814363664794048	12.550440071921113
O	16.112888070281244	4.478921459266433	13.570008452308127
O	15.856058110530855	4.247620158547024	14.922985755408645
O	13.19065381039372	5.694801589911556	12.039548261374929
O	13.644431073984816	4.691923911002789	11.184864906843094
O	14.470308048281701	3.8617076462797013	11.875896790084154
O	11.794908376974838	5.252765235935474	12.582388684041351
O	12.74705782825594	4.110371414412672	10.13294069686849
O	15.340792738183294	2.9456798417328085	11.414585723821803
O	17.11717594486439	4.251405992373592	15.435039783580683
O	17.667428762237776	3.6122850703856866	16.44227755102686
O	17.521749852025305	2.2685142549025756	16.576742131763137
O	19.00760561675981	3.809508257467213	16.297500492568382
O	17.09005298415711	3.959232265055825	17.635860681899366
O	16.16789444655787	3.85517423043639	10.445899000511535
O	15.425424254986972	4.905556147293552	9.985656016165569
O	15.768071533217213	6.219695368305812	9.991368124923257
O	16.721750478805404	6.499208005880553	10.909217827497685
O	17.813943825135713	5.583315082259475	10.906266798220065
O	17.312076190451894	4.278979861775899	11.036146252603068
O	18.232726673055026	3.1387106495660713	11.874647635206156
O	15.41758507968056	6.579356653937649	8.67134137802871
O	15.14842476476078	7.886718862279967	8.434302904290991
O	15.540508282479287	8.454655554786092	7.074602249356651
O	13.774786443590214	8.009158249111406	8.891626248318804
O	13.387596429221572	9.166780204746871	8.973288582284392
O	12.880987679662905	7.013428225084747	9.183171457324798
O	11.244959619331194	6.17330650350214	13.160708661889421
O	10.421300608753896	5.606143270329044	14.074315041872072
O	10.82705003724406	4.3998609603627115	14.441134558416492
O	11.600226189206507	4.133091641278109	13.36844557293544
O	11.229289468355633	3.652388204515495	15.544384082616274
O	12.307368376893297	2.813064649111702	15.612765740818324
O	12.954739853355948	2.589633275708649	14.397003629791875
O	12.286392276733006	2.9254024766412687	13.269714858608662
O	12.982582871749877	2.8477157008073	16.84445148531652
O	14.246151728056837	2.313192800507755	17.104863880348546
