21

O	-2.0421948432922363	-0.401197612285614	-0.5861943364143372
O	-3.415107488632202	-0.5145774483680725	-0.5611024498939514
O	-3.996706485748291	-1.7665603160858154	-0.3409488797187805
O	-4.213162899017334	0.5891326665878296	-0.7500650882720947
O	-3.623673439025879	1.7897306680679321	-0.9612754583358765
O	-2.2461254596710205	1.8815958499908447	-0.9825225472450256
O	-1.4321058988571167	0.7524812817573547	-0.7891187071800232
O	-0.0757906585931778	1.001247525215149	-0.8366468548774719
O	0.5892207026481628	-0.35796764492988586	-1.0861144065856934
O	0.1575591266155243	-1.1611095666885376	0.35261720418930054
O	-1.2510854005813599	-1.7709861993789673	-0.3596373200416565
O	-1.904381513595581	-2.067078113555908	1.1053086519241333
O	-1.7098275423049927	-0.7786834836006165	1.8031129837036133
O	-0.5435627698898315	-0.05792135000228882	1.2288639545440674
O	2.056267499923706	0.03700987622141838	-0.5293647646903992
O	3.0980279445648193	-0.3653413653373718	-1.3081194162368774
O	4.372289180755615	-0.05849842727184296	-0.8868417143821716
O	4.595359802246094	0.6335309147834778	0.2844628095626831
O	5.8873291015625	0.9123392105102539	0.6560705900192261
O	3.4852662086486816	1.006856083869934	1.019002079963684
O	2.21240496635437	0.6959972977638245	0.5907031297683716
