21

O	11.999583280653134	51.730955475671806	58.84914232979032
O	11.285224443195904	52.22735120880232	57.88684677581625
O	9.985489100600544	51.93780915036739	58.23033055379246
O	11.844100712664329	53.458534654630746	57.37677433776513
O	13.304780797070508	53.432103978028806	57.156093708425026
O	13.896434763793208	53.414469820853185	58.4139556392704
O	13.260926050055879	52.47294598865893	59.144187580869016
O	13.241857139744258	52.48886498654084	60.499910587057606
O	12.018269714296077	51.690449949312054	60.76209604879422
O	12.436363100753878	50.470984633946294	60.33765828733785
O	12.500245709955452	50.374158762577096	58.92231240022321
O	13.841817770082207	49.97484483891566	58.375376300055855
O	14.757074486937153	50.66347256262973	59.335003452584786
O	14.022841837095601	50.450372411801474	60.59190346019928
O	11.123894362625975	52.689301529081575	61.06037501785275
O	11.583647713555813	53.893641964247095	61.58027720901945
O	11.750758582633985	54.15333397567619	62.97607773010747
O	11.322382217430668	53.19526641104629	63.85499299090101
O	12.100604123951804	52.87452788948862	64.91374877921527
O	10.176240614092887	52.58915047309451	63.32551153803972
O	10.082719871847008	52.320759151774524	61.93203664592191
