87

O	0.12334097057600002	1.9505439836800005	6.2384490564599995
O	-1.546552801424	2.1957378236800005	6.6700396164599995
O	-1.909520391424	3.14228143068	5.717575816459999
O	-0.920715522424	3.7004982316800006	4.97068330646
O	0.298624350576	3.1009089406800006	4.96009469646
O	-1.926034946424	1.5809156536800004	7.9560816464599995
O	-0.927838308424	1.2515220036800003	8.698621226459998
O	-2.491900619424	0.2706077636800006	7.89637203646
O	1.3213318405760002	4.07065478068	4.485014426459999
O	0.864427140576	4.71305774368	3.2838683364599994
O	0.571901650576	6.0830444236800005	3.2183070164599994
O	1.4024299005760001	6.83684192368	3.933553826459999
O	1.975094380576	6.2732248336800005	5.067260286459999
O	1.735528460576	4.95833901368	5.492609516459999
O	-0.8110811104239999	5.49940612368	5.74589015646
O	-3.085665259424	3.7951441606800005	5.4003481964599995
O	-3.0424753294239997	4.88946040368	4.264182336459999
O	-3.334790699424	6.18163206368	5.0360759564599995
O	-3.249802989424	7.226212133680001	4.405782416459999
O	-3.992466399424	6.28379687368	6.272344426459999
O	-0.817080793424	6.25361513368	2.8921156464599993
O	-1.083734965224	5.52665779368	1.5976646274599993
O	-0.03219670942399988	6.11777929368	0.6553926464599993
O	0.06397594057600009	7.573995673680001	0.9600358994599993
O	-1.065673668624	7.97992659368	1.7036438087599994
O	-2.338512129424	7.529631523680001	1.2529087854599994
O	-2.401259809424	5.997003683680001	1.1262321554599994
O	-0.9194057284239999	9.11491056368	2.9646323064599995
O	0.18475063057600005	9.94495262368	2.3096145634599994
O	-2.305245759424	9.71295372368	2.8386755964599995
O	-0.606105989424	9.052599903680001	4.560700226459999
O	-0.5914748984239999	8.62591932368	5.9015092964599996
O	-1.640702397424	8.460020613680001	6.82799810646
O	-1.5384038694239999	7.40047092368	7.79440631646
O	-0.35938006042399995	7.418646323680001	8.485057676459999
O	0.7248339605760001	7.549773673680001	7.67113681646
O	0.5620011905760001	8.60416229368	6.71385171646
O	-7.011038359424	4.703423043680001	-8.61044180354
O	-4.8882615694239995	7.07929298368	-6.451715193540001
O	-5.216714819424	9.67242538368	-9.270505403540001
O	-4.016223629424	7.29242173368	-11.957213003540001
O	-1.549306804424	5.16814791368	-10.019420803540001
O	2.033936710576	5.231606233680001	-11.059952603540001
O	4.339403080576	7.711619433680001	-9.31838510354
O	7.923131930576001	6.329639723680001	-9.901696303540001
O	12.093607720576	5.78142634368	-4.91283376354
O	7.737405960576001	4.54219584368	7.29546795646
O	9.485312420576001	7.506849413680001	5.602320956459999
O	6.837620510576	7.73085792368	2.7397817684599994
O	6.380740740576	3.9848058346800004	1.9537346924599994
O	8.980559820576001	2.8768076306800006	-0.15175435354000055
O	9.493019320576	0.3968206236800005	-2.8184481035400006
O	9.980331620575999	1.9781710836800004	-6.24031627354
O	13.583856620576	1.5907342036800003	-7.27921015354
O	10.042133920576	-4.80315458632	-0.15135131354000064
O	7.129576450576001	-5.736149916319999	2.561222291459999
O	6.6948271805760005	-3.7450474563199996	5.738648026459999
O	1.2548854605760003	-11.41122832632	8.644495596459999
O	0.812210740576	1.5327699236800003	18.32447269646
O	2.8372379305760003	-1.7748705563199993	14.191801196459998
O	-5.694243849424	-2.1017886963199994	10.353834726459999
O	-7.641078379424	-0.13413106631999971	7.7300689264599995
O	3.259716260576	-7.978311826319999	5.231392166459999
O	1.034084520576	-5.947416496319999	7.574151296459999
O	2.509366540576	-2.9310736163199995	9.01175006646
O	3.404451940576	-0.78709894632	5.98297885646
O	2.9528165405760003	-3.3872036063199995	3.5410393564599993
O	0.380384650576	-1.8198020263199992	1.2966842814599993
O	-3.136956559424	-1.9516346363199992	2.5978283224599994
O	-4.0115089994240005	-5.25150463632	3.9393633864599993
O	-1.061131982224	-6.623283926319999	2.0533103124599994
O	-2.258286779424	-5.036400426319998	-1.2210209835400005
O	-5.745313349424	-6.41570062632	-0.7188872635400008
O	0.6438046305760001	-0.18588169631999962	-8.133300553540002
O	4.481486690576	-0.6537372663199998	-5.19200313354
O	2.5973035905760002	2.5558963906800005	-4.03267210354
O	-0.5498439154239999	2.6838296946800004	-2.2224332135400005
O	-1.636135104424	-0.8458335163199995	-2.5618793235400004
O	-5.0444302994240005	-1.1313125663199997	-1.0950355635400009
O	-5.883817899424	1.4191105836800004	1.0853367274599992
O	-9.662367739423999	1.9161458936800004	1.2571583874599994
O	-12.590399579423998	1.8963145436800004	-0.9292392935400005
O	-14.031048879423999	-0.9430362963199994	1.2170951274599995
O	-10.871849969424002	-3.0363729563199997	0.9818547804599993
O	-11.216168379424001	-2.67982155632	-2.8195810035400006
O	-13.912923879424	-6.69159532632	-0.6114238335400006
O	-11.274162779424	-7.577919826319999	-3.22507145354
