31

O	49.84170832007173	11.74495291905096	3.3923381910199026
O	50.11324134146593	12.724796117346248	1.9692051661502195
O	50.27398136589812	11.64579531859504	1.1291307095303091
O	50.67339500476166	10.48712749763826	1.7252667721782968
O	50.337549823127425	10.117476606560619	2.9975175089116197
O	49.80358533719768	14.089431887155289	1.515264096891765
O	48.639691551458064	14.752533238819476	1.936832655483392
O	50.688507702269916	14.858056946639982	1.0872842812428427
O	49.48989931704355	8.83114512357648	2.9614828100883317
O	48.12135537176959	8.967818030324839	2.6868386620865277
O	47.508460008212836	8.751063908437475	1.4191707134031812
O	48.295852163043904	7.793472997579041	0.7500455338239975
O	49.13597745974932	6.920982732285117	1.4874178014495536
O	49.97773600037937	7.683199315234975	2.354465102924169
O	51.815974626420136	9.271344104618354	0.6862832666904275
O	49.61613562264543	11.708804614291125	-0.13080651285127498
O	49.9769122734948	10.572296319449858	-0.9658572745597978
O	48.9966211334174	10.47370165723549	-2.073773954111977
O	48.25682648410211	9.29163310170649	-2.131484898486181
O	48.545838043400366	11.579726358891127	-2.493552064908786
O	47.23138000600872	10.047270446822695	0.7420410955638816
O	46.50518165779344	10.943762735765016	1.696561873496127
O	45.08223918791663	10.389143828772632	1.536568378049079
O	44.79191266927582	10.274738524697725	0.040920336787920064
O	45.87120573211378	11.020793565708871	-0.7792913246343351
O	45.650540409766904	12.335481352219603	0.05288778529055538
O	46.70944035434147	12.317449274907963	1.068697385101637
O	44.549630070818615	8.904640563962854	-0.29485228386913587
O	43.4838395272483	10.965469621279617	-0.37344530406991083
O	44.41795771430489	12.521628316732908	0.9798423943492258
O	45.197195627285964	13.231361284860675	-0.9531896928397332
