28

O	-1.537100911140442	-1.437109112739563	0.22273440659046173
O	-3.257807970046997	-1.516109824180603	0.41126081347465515
O	-3.5674538612365723	-0.21976017951965332	0.7149280905723572
O	-2.5670206546783447	0.6718250513076782	0.7836980223655701
O	-1.2988371849060059	0.21981112658977509	0.540168046951294
O	-4.106389999389648	-2.703087091445923	0.30798158049583435
O	-3.5087974071502686	-3.9035210609436035	0.014914805069565773
O	-5.320165634155273	-2.6226706504821777	0.479686439037323
O	-0.037781793624162674	0.9524696469306946	0.5444614291191101
O	1.1694949865341187	0.35624849796295166	0.2780148386955261
O	2.356672525405884	1.0714898109436035	0.2873552441596985
O	2.3247480392456055	2.411308765411377	0.5704461932182312
O	1.1368238925933838	3.0395703315734863	0.8412951231002808
O	-0.025625094771385193	2.2911815643310547	0.8221319913864136
O	-2.819030523300171	2.5640625953674316	1.2091407775878906
O	-4.912785053253174	0.1786436140537262	0.9410919547080994
O	-5.740410804748535	0.8125666379928589	0.06210428848862648
O	-6.036190032958984	0.26406213641166687	-1.2382209300994873
O	-6.989928722381592	0.926703155040741	-2.054068088531494
O	-5.557915210723877	-0.7584395408630371	-1.7876536846160889
O	3.57928729057312	0.36630570888519287	-0.003619386814534664
O	4.819306373596191	1.0972864627838135	0.002770804800093174
O	5.956787586212158	0.20063500106334686	-0.31811779737472534
O	7.250016689300537	0.6706199645996094	-0.372445672750473
O	8.269569396972656	-0.2243257313966751	-0.6790989637374878
O	7.999682426452637	-1.5584545135498047	-0.9254486560821533
O	6.718937873840332	-2.0269734859466553	-0.8722842335700989
O	5.701913833618164	-1.1243391036987305	-0.5643262267112732
