28

O	45.51045084594492	14.33963192368612	1.6115768699258428
O	45.5181019550031	15.302133997798343	3.0554008152578422
O	46.446562311023285	14.613051492973037	3.771923391147751
O	46.54821208244351	13.293196868510009	3.4803871116733243
O	46.212253614927604	12.918676330494701	2.184202699244876
O	45.145092534308745	16.72858119184852	3.1002304328306955
O	46.070691758330206	17.44724861238199	2.6120723036661317
O	44.770122651656486	17.19967771339338	4.348780093765788
O	46.531000269424545	11.637964583313021	1.6286103546847395
O	47.84641775016521	11.24892631762719	1.7886977790596523
O	48.36145019507238	10.259109971835834	0.977568901269958
O	47.48042996287154	9.59194354555012	0.1705732066897152
O	46.243367380840795	10.169519147172172	-0.13740009019879373
O	45.68840214652085	10.792712760318423	0.9923631177297274
O	46.58145812765103	11.892943096956827	4.735065954864474
O	47.19001257532568	15.309273633809685	4.674008627130841
O	47.43266560331919	16.66020641756124	4.816126383186589
O	47.35123315133251	17.309540866492178	6.122499726894062
O	46.311897168455666	17.252294672357056	7.020082451573159
O	48.13497889357881	18.29741775720519	6.282966726287638
O	49.27215884333433	9.394402782193975	1.698958476032189
O	48.63810073938188	8.72844143499172	2.7740624465883865
O	48.056250508484354	7.417124599105522	2.4845086851412406
O	47.6069537734351	6.669594518729404	3.5620701242609254
O	47.606407716003844	5.279929975267872	3.493907547194075
O	47.4777980117735	4.781589809207533	2.23478797386446
O	48.02786757030713	5.499452452610669	1.206719892074375
O	47.830851477376186	6.880314786849398	1.2485550325485555
