28

O	44.924	14.323	0.664
O	45.096	15.646	1.73
O	45.97	15.289	2.791
O	46.444	13.956	2.653
O	45.945	13.282	1.509
O	44.414	16.859	1.485
O	44.447	17.78	2.299
O	43.789	16.957	0.424
O	46.201	11.887	1.026
O	47.518	11.315	1.06
O	47.737	9.983	0.601
O	46.629	9.203	0.097
O	45.31	9.766	0.056
O	45.108	11.105	0.524
O	47.632	13.187	3.913
O	46.366	16.114	3.9
O	47.582	16.846	3.71
O	47.942	17.592	4.994
O	47.163	17.543	5.963
O	49.003	18.222	5.027
O	49.032	9.5	0.669
O	49.404	8.082	0.806
O	49.449	7.612	2.245
O	48.233	7.195	2.895
O	48.268	6.745	4.253
O	49.526	6.719	4.944
O	50.746	7.135	4.3
O	50.706	7.585	2.937
