24

O	-6.462	8.436	26.626
O	-5.723	8.309	25.419
O	-5.847	7.16	24.624
O	-6.734	6.098	25.024
O	-6.822	4.966	24.196
O	-8.064	4.246	24.375
O	-8.313	3.866	25.876
O	-7.139	3.03	26.496
O	-7.082	3.456	27.987
O	-8.028	4.652	28.162
O	-8.44	5.143	26.74
O	-7.474	6.235	26.247
O	-7.331	7.407	27.032
O	-8.119	2.981	23.513
O	-7.015	2.56	22.732
O	-7.112	1.384	21.955
O	-8.314	0.629	21.965
O	-8.426	-0.505	21.231
O	-9.402	1.051	22.738
O	-9.307	2.215	23.505
O	-5.039	7.07	23.336
O	-5.912	6.801	22.224
O	-6.014	8.004	21.46
O	-6.333	9.552	27.389
