16

O	-2.6869659423828125	0.9751219749450684	0.08641970157623291
O	-1.5497400760650635	1.4547061920166016	-0.4115222692489624
O	-2.981839895248413	-0.32776495814323425	0.09725872427225113
O	-2.0757999420166016	-1.2288670539855957	-0.4282338619232178
O	-0.907669723033905	-0.7281484007835388	-0.9388921856880188
O	-0.6564792394638062	0.5929555892944336	-0.9269281625747681
O	2.9981796741485596	-0.48689204454421997	-0.40810030698776245
O	3.6393589973449707	0.5780477523803711	0.19060975313186646
O	3.15898060798645	1.20697021484375	1.3109902143478394
O	1.9634782075881958	0.7448886036872864	1.870003342628479
O	1.3315823078155518	-0.3225564658641815	1.260256290435791
O	-1.2612706422805786	2.864086627960205	-0.4085797369480133
O	0.14542418718338013	-1.626693844795227	-1.5347590446472168
O	1.8350210189819336	-0.9307981729507446	0.14203032851219177
O	1.130623698234558	-2.077657699584961	-0.490419864654541
O	-4.082883358001709	-0.6873981952667236	0.5898670554161072
