35

O	-3.774625301361084	1.3440660238265991	0.9929065108299255
O	-2.750530481338501	-1.8246856927871704	2.275095224380493
O	-0.9104533791542053	-0.7962999939918518	1.7125898599624634
O	-1.4343371391296387	-1.968531847000122	2.1163511276245117
O	0.42801588773727417	-0.42987513542175293	1.4088460206985474
O	1.5322383642196655	-1.2837471961975098	1.4788042306900024
O	2.9199135303497314	-0.8710495233535767	1.1546268463134766
O	1.3711439371109009	-2.469726085662842	1.832080602645874
O	3.929072141647339	-1.7873382568359375	1.2634592056274414
O	5.214076995849609	-1.4549322128295898	0.976902425289154
O	4.50954532623291	0.7445909380912781	0.45857754349708557
O	3.2175302505493164	0.39461129903793335	0.7511854767799377
O	-3.140967845916748	-0.5776499509811401	1.9885562658309937
O	-1.964224934577942	0.09199415892362595	1.6255329847335815
O	-2.392932415008545	1.4810211658477783	1.3056275844573975
O	-4.28537654876709	0.372066468000412	1.8980743885040283
O	6.885046482086182	0.16630752384662628	0.26701781153678894
O	7.1992998123168945	1.5003124475479126	-0.160614475607872
O	7.96932315826416	1.4275506734848022	-1.4319322109222412
O	8.405048370361328	0.1544872671365738	-1.8481996059417725
O	8.85863208770752	-0.7301413416862488	-0.8245009183883667
O	7.954227447509766	-0.7840952277183533	0.37879395484924316
O	7.574488162994385	-0.4756195843219757	-2.8435990810394287
O	5.549434661865234	-0.18635977804660797	0.566961407661438
O	-4.438347816467285	2.0256223678588867	0.014954499900341034
O	-3.9031665325164795	2.8836164474487305	-0.7553744316101074
O	-4.8468122482299805	0.9730662703514099	-2.3833272457122803
O	-4.7447052001953125	0.08542705327272415	-3.4528164863586426
O	-5.852991104125977	0.8486570715904236	-1.5063008069992065
O	-5.691521167755127	-0.8927630186080933	-3.5653765201568604
O	-6.783774375915527	-0.11063168942928314	-1.6142985820770264
O	-5.999324798583984	1.837090253829956	-0.3009539544582367
O	-6.728279113769531	-1.0346490144729614	-2.6765623092651367
O	-7.61566162109375	0.5565852522850037	0.571581244468689
O	-6.25900411605835	0.7910228371620178	0.7682926654815674
