16

O	6.673782959302095	-12.614304378422034	3.8577213621230753
O	7.75934578129825	-11.619246137195617	3.6928704396450005
O	7.452365846074517	-10.498608411562634	2.744624131044644
O	6.5509198556750246	-10.986535263207056	1.6523641775858544
O	5.31314103289237	-11.488196167957508	2.29649399414576
O	4.181684205245457	-11.827310002415638	1.3785866135435487
O	7.4130679515059414	-11.057719316385556	5.878052066797734
O	8.475276578673018	-8.137176726615683	6.774254499218048
O	8.254333857788628	-11.1750480062734	4.957097097040889
O	8.549104240618377	-9.829029355718214	2.270572936994944
O	6.383215529574566	-10.152631803217588	0.5753128590903183
O	5.5753631121849905	-12.590832103280015	3.0671733070537757
O	7.997340547853208	-10.442079792027554	6.969747634389197
O	4.355409746740668	-13.144908157419591	0.9998750117695403
O	6.129823753555577	-12.224414447686772	5.526260526814648
O	7.705115677598733	-9.221526735627698	7.445668173965496
