76

O	3.752610069276667	-0.5129817710699995	-0.8327276723833337
O	2.9193735092766664	-1.6962861600699997	-0.5144967363833337
O	1.9680930692766663	-2.1105084200699995	-1.5974196783833339
O	2.556252899276666	-1.8005258000699995	-2.9396894283833337
O	2.8032948692766664	-0.33911504606999954	-2.9834178083833334
O	3.1906434092766665	0.2257613301300005	-4.313313478383334
O	1.9319605192766662	-0.4174532640699995	1.0979056516166663
O	-0.9820427757233334	-1.4021323400699996	2.0979191016166663
O	2.3013429192766663	-1.5679720400699995	0.7669742516166663
O	1.5112945992766664	-3.39809695007	-1.5007414083833335
O	1.9230868792766662	-2.3450159800699995	-4.0288131583833335
O	3.7652762992766666	0.021506098930000495	-2.0761928383833337
O	1.1871661392766666	-0.4817630110699995	2.2612333316166664
O	4.566194009276667	0.1287693379300005	-4.403430288383333
O	3.008556579276666	0.7077174619300005	0.25732118261666637
O	-0.12337685972333345	-0.21830282006999951	2.3825233716166663
O	-7.3820640807233335	-3.3496582700699995	-2.4520546383833337
O	-5.699426170723334	-6.084881890069999	-4.526155058383334
O	-2.5346389507233336	-5.285373100069999	-2.4673704683833337
O	0.2986278892766665	-5.100507990069999	-4.979286308383333
O	3.484578519276666	-7.15804193007	-5.504558658383334
O	-4.2669250707233335	-9.04317844007	-0.09069605038333367
O	-1.9042479607233336	-9.96250640007	-3.0303332083833334
O	1.5032871492766664	-9.66636929007	-1.5230685583833337
O	2.6043518792766664	-12.73699580007	-3.4864674383833334
O	-0.18178468172333345	-15.10155020007	-2.2948765083833336
O	-6.5987420707233335	-9.629919480069999	4.581198051616666
O	-8.015829910723333	-7.1717254400699995	7.716881361616666
O	-4.580349620723333	-7.500408530069999	9.289341241616667
O	-1.7469860207233334	-5.847858090069999	7.366252551616666
O	1.5822510492766666	-4.766423060069999	8.944352771616666
O	3.0134453092766664	-2.9192427700699994	5.879095131616666
O	6.5892616892766664	-3.4075888200699995	4.505358271616666
O	8.016028789276666	-5.452638440069999	7.360446481616666
O	10.873549439276667	-5.248072800069999	9.851674081616666
O	6.449182899276666	-3.6448249000699997	13.903387381616666
O	-9.434944160723333	-3.1188182400699995	9.092066921616667
O	-5.717728970723334	-2.7943725800699997	9.740548081616666
O	-2.9088635807233336	-1.1355697900699995	7.828492641616666
O	0.027296408276666573	0.2315340546300005	9.798478281616667
O	3.812917009276666	-0.1488493380699995	9.456486721616667
O	4.042658279276666	3.6618477299300003	9.351720801616667
O	1.4785188592766665	3.9985164299300004	6.500785511616667
O	2.2957489592766662	7.387560499930001	4.915256501616667
O	7.447586599276667	10.13858946993	4.963070771616667
O	7.808011859276666	6.728218629930001	6.631002911616666
O	-5.340919810723333	2.5876457399300006	6.432661481616666
O	-3.0556872907233337	5.390269719930001	5.0992090716166665
O	-1.4067957027233335	6.203655359930001	1.7536631316166664
O	-0.7635141773233335	9.93764733993	2.2715392216166665
O	2.4063084292766663	12.01117499993	2.7203748216166663
O	4.459581479276666	9.50059936993	0.7057087716166662
O	4.104355049276666	5.756938679930001	-0.2599474003833337
O	2.7409083992766665	7.058771499930001	-3.5849376783833335
O	0.8537986192766666	10.30452119993	-3.1066868183833334
O	-9.282392570723333	4.750307219930001	5.464764101616667
O	-7.353277630723333	5.7065523999300005	2.3309939516166662
O	-5.083191730723334	3.1747637599300003	0.5394360086166663
O	-4.533579860723333	5.020143339930001	-2.7873699883833334
O	-1.4729142367233334	3.8746317699300006	-4.766670498383333
O	-2.6960190207233334	4.418252149930001	-8.325010178383334
O	-2.8277965807233336	2.7879390799300006	-10.851038418383334
O	-0.5133541207233334	0.1893226744300005	-9.096418258383334
O	2.5511101392766666	-0.1667129830699995	-11.358207318383334
O	4.451748869276666	-2.8372494100699996	-9.405865398383334
O	7.499844459276666	-0.5425329620699995	-9.069123508383333
O	7.395301189276667	0.6523608229300005	-12.765541318383333
O	-9.567293730723334	2.2560344199300006	-1.9761297583833337
O	-7.342717660723333	2.0617650999300006	-5.052665748383333
O	-4.374541520723334	-0.31839680506999946	-5.2693292283833335
O	-4.478208080723333	-1.3067571100699995	-9.039988488383333
O	-2.0566062707233335	-2.8555308600699996	-11.570676818383333
O	-7.070416210723334	-1.1251895300699997	-14.171344318383333
O	11.205963539276667	6.429340159930001	-10.226198278383334
O	12.328210839276666	6.112628409930001	-6.600904388383333
O	8.867323859276667	7.096213219930001	-5.355326328383334
