93

O	0.9957600569473684	3.139405971721053	2.4049160595964914
O	0.5608444869473683	2.7808946417210527	1.338019969596491
O	1.2000276669473684	3.4092851617210527	0.12875547959649114
O	1.1883043169473684	4.924918621721053	0.02016141959649098
O	2.0777786469473685	2.7142485317210525	-0.524987036403509
O	2.109865666947368	1.6991834416210527	-1.506126065603509
O	1.0311239069473683	0.9156647047210527	-2.013317488403509
O	0.46191638694736836	0.2793061017210525	-0.6403301894035089
O	1.217079806947368	-1.0404623882789474	-0.9514946204035089
O	-0.7943660720526318	2.4831975837210525	1.0933400995964913
O	-1.6915993530526316	3.5587211217210526	0.5480942495964911
O	-2.983570913052632	2.8018626117210523	0.39279745959649115
O	-3.4192984030526317	2.7517223317210524	-0.989631419403509
O	-4.228012133052632	1.5087330407210526	-0.9298912564035089
O	-2.2155993800526317	2.4419258617210526	-1.3653988776035089
O	-1.1288959950526318	3.0752556717210524	-1.513588364803509
O	-1.0977649420526316	4.026185911721052	-0.5409144504035089
O	-0.8764849990526318	4.411155981721053	-2.3782999904035087
O	0.31700293694736836	3.934481101721053	-3.087667570403509
O	0.7103026269473682	5.0876795417210525	-4.036612480403509
O	-0.4364257800526318	3.0126598217210527	-4.0820103204035085
O	-1.8802548160526318	3.1305320917210526	-4.196030160403509
O	-2.1796764230526318	4.355804051721053	-4.759313250403509
O	-3.050859883052632	5.1256180617210525	-4.021313550403509
O	-2.9868461830526316	2.2023458207210527	-4.374721250403509
O	-4.154328313052632	2.9507433917210526	-4.083706260403509
O	-3.0922672030526317	0.9075766707210526	-3.737893890403509
O	-4.057586883052632	0.025736501721052685	-3.213754960403509
O	-1.8509224870526317	0.3337904917210526	-3.093656830403509
O	-1.0018415060526318	-0.08598288827894729	-2.239842431403509
O	0.09395425694736836	-0.8664196782789473	-2.984161250403509
O	-0.9394147450526318	-0.15211542827894742	-0.6414825624035089
O	-2.163782294052632	-0.09095243827894728	-0.3355470604035089
O	-2.900400043052632	-1.2843736082789472	-0.210644010403509
O	-2.2721277910526316	-1.9987130782789473	0.5939480495964913
O	-4.283466693052632	-1.4649371882789475	-0.23890818040350892
O	1.668463146947368	2.3924375427210527	14.785023849596492
O	2.627665426947368	0.1617827517210526	11.820727149596491
O	-2.822107223052632	1.2346490567210526	12.13762264959649
O	-1.0480186120526318	2.3097472897210527	8.883479449596491
O	-1.3303721516526317	-1.1030381682789474	7.226971159596491
O	-4.973421283052632	-1.3509399482789473	8.283984469596492
O	-5.6772791430526315	2.1450687657210525	7.02929013959649
O	-3.9630369030526316	0.8410642337210527	3.9008779495964907
O	-6.208478683052633	-2.0719367382789473	3.6050413395964904
O	-9.291106113052631	0.04493542172105269	4.297091409596491
O	-8.432530873052631	2.367968473721053	1.494034579596491
O	-7.832499923052632	-0.5321408882789473	-0.9884756824035089
O	-11.354778903052631	-1.8049932982789474	0.03796811959649116
O	-13.060884713052632	1.5586368972210527	-0.405378260403509
O	-11.549075213052632	1.6131300534210526	-3.936326230403509
O	-12.999672813052632	-1.7134968482789472	-5.042142980403509
O	-9.994424313052631	-8.030715118278948	-0.322990680403509
O	-9.48109943305263	-4.511985668278947	-1.766769013403509
O	-8.619000983052631	-3.4341632582789474	-5.298723980403509
O	-5.204316243052632	-5.142738358278947	-5.456816430403509
O	-2.2337829670526315	-4.091707088278947	-7.564700740403509
O	3.3820265669473684	-2.548316288278947	-13.092969350403509
O	1.6320603169473684	-0.9925682982789472	-10.070984530403509
O	3.8408387069473684	-2.8010552882789472	-7.56520256040351
O	6.997463386947368	-1.7572574482789474	-9.496581400403509
O	5.898005736947368	1.8841136387210526	-9.881746540403508
O	4.520478566947368	2.451918040721053	-6.391071930403509
O	6.717684936947368	0.2650254017210527	-4.153070000403509
O	10.102327286947368	1.5730636974210526	-4.814380120403509
O	11.263633186947368	2.7312079417210526	-8.228915170403509
O	10.07574248694737	8.432341921721052	-4.855050220403509
O	6.537294106947368	9.542266741721052	-4.044119770403509
O	5.527767286947368	13.070960771721051	-3.044981170403509
O	5.979004386947368	13.161241471721052	0.7289895895964913
O	9.043740886947369	10.872354691721053	1.0033885795964912
O	11.633067086947369	13.674477371721053	1.460404209596491
O	3.852621686947368	9.096876741721053	8.49858353959649
O	0.3388948369473683	8.444623241721054	7.088687629596491
O	2.8762458469473686	12.142653171721054	4.2209557795964905
O	1.6355024069473685	9.186099351721053	2.189712439596491
O	4.580836656947369	6.854317371721053	3.0863214595964905
O	2.988215596947368	4.872038761721052	5.9672178895964905
O	3.615707026947368	1.4842934247210526	4.27052697959649
O	7.205547286947368	1.8793105967210526	5.162575859596491
O	6.233686376947368	1.9431591647210527	8.841137449596491
O	6.3463289069473685	-9.895970928278949	0.9735652995964912
O	3.506164246947368	-7.953868878278947	-0.7006870614035089
O	1.2936414569473684	-10.501397428278949	-2.464297430403509
O	-1.3255553778526317	-8.825757628278946	-4.664589300403509
O	-5.805353793052632	-7.086581058278948	-9.17036441040351
O	6.934649886947369	-8.086929498278948	-4.322843150403509
O	-8.664252723052632	-10.254193728278949	-5.2436795904035085
O	-6.718042883052632	-7.928304058278948	-2.912074730403509
O	-3.360629793052632	-7.802084348278947	-1.168172571403509
O	-1.4563473726526317	-9.511129228278946	1.6226150495964913
O	1.2405179969473683	-7.821487088278947	3.562212509596491
O	3.3102447069473686	-10.677007428278948	4.889098479596491
