36

O	39.06956167344511	-5.703960923733176	40.25717453150018
O	39.38680608457905	-6.587940364194875	39.49962220586889
O	40.854488538165185	-6.920094212831465	39.46311979133195
O	41.83174453670573	-5.805388730598352	39.12923763686716
O	41.25645361937394	-7.969289278027855	40.11004773617211
O	41.32314718729387	-9.367765862071805	39.926102851789324
O	40.73077762605455	-10.16069175309092	38.89887582261232
O	39.178027145998584	-9.742317107930061	39.06612473478965
O	38.92145562794929	-11.052277901866711	39.85799450672016
O	38.78974213694943	-6.807711827031189	38.24252134161261
O	39.41623043468941	-6.198290996227179	37.01974166315647
O	38.51071216342826	-6.728143873306265	35.940188515759004
O	39.225369065862864	-7.566225352509745	34.99659588928715
O	38.09132777993804	-8.40020842834046	34.52645574767789
O	39.81127116833434	-8.18339438883943	35.97735451420619
O	40.75899264010343	-7.911982157068354	36.77243339816336
O	40.68676099472871	-6.5762490263074636	37.02129400242955
O	42.25212232834954	-7.434591764032462	36.39996958606517
O	42.958523978644365	-8.385922208856273	37.266457815279914
O	44.45954342440627	-8.119586579781267	37.0193673733011
O	42.75182232928574	-9.625607765454255	36.35729283726248
O	42.2777357999883	-9.430682702207832	34.99759328824352
O	43.263612342012564	-8.7875446706176	34.27464555127412
O	42.852500754015246	-7.6290224142442655	33.65413670212536
O	41.36505512590989	-10.13060862237484	34.10589692384623
O	41.11497608276551	-9.228457749282354	33.04222994263868
O	40.11357755669246	-10.733961019192856	34.50945560445381
O	38.81551675939051	-10.981929576501795	34.021853771712436
O	39.869432548094444	-10.93304970775687	35.98795673109948
O	39.40741803814652	-10.836048385575552	37.1725581690882
O	39.91313342242307	-12.033702919177031	37.99337240505249
O	38.31665643637818	-9.910703567782962	37.89158597137241
O	37.619822947871825	-9.527661072171933	36.90969245696968
O	36.5026077479713	-10.29157361062545	36.52145490114849
O	35.80203587556873	-10.427742074852203	37.542744519717374
O	35.81784890294895	-10.283514698169165	35.30600609261556
