36

O	40.996	-5.279	41.757
O	41.002	-5.755	40.625
O	41.418	-7.145	40.515
O	42.747	-7.508	41.109
O	40.564	-8.053	39.952
O	40.786	-9.519	39.76
O	40.028	-9.916	38.49
O	38.518	-10.061	38.66
O	38.15	-11.051	39.778
O	40.643	-4.978	39.591
O	40.877	-5.232	38.261
O	39.876	-4.922	37.356
O	40.043	-5.148	35.988
O	38.992	-4.863	35.163
O	41.224	-5.701	35.498
O	42.246	-6.033	36.413
O	42.069	-5.774	37.777
O	43.544	-6.674	35.966
O	43.459	-8.217	35.86
O	43.291	-8.92	37.219
O	42.366	-8.663	34.846
O	42.131	-10.163	34.705
O	43.361	-10.836	34.361
O	43.382	-12.207	34.692
O	41.099	-10.492	33.626
O	41.647	-9.995	32.385
O	39.742	-9.842	33.921
O	38.782	-10.265	32.814
O	39.136	-10.387	35.21
O	38.398	-9.71	36.137
O	38.046	-8.249	36.016
O	37.875	-10.497	37.318
O	36.486	-10.225	37.433
O	35.59	-11.043	36.665
O	36.062	-11.894	35.929
O	34.308	-10.774	36.857
