18

O	-7.608208179473877	10.087798118591309	-38.513206481933594
O	-7.444369316101074	10.116636276245117	-37.097869873046875
O	-8.234268188476562	8.990043640136719	-36.450958251953125
O	-9.64422607421875	9.22951889038086	-36.65689468383789
O	-7.841451644897461	8.89025592803955	-34.979530334472656
O	-8.639511108398438	7.822164535522461	-34.24496078491211
O	-8.709796905517578	6.6321821212768555	-35.034576416015625
O	-6.426933288574219	8.632780075073242	-34.85487365722656
O	-5.681712627410889	9.726659774780273	-35.359291076660156
O	-4.3104681968688965	9.411015510559082	-35.26908874511719
O	-5.968037128448486	9.93726634979248	-36.8360710144043
O	-5.2509870529174805	11.115246772766113	-37.273155212402344
O	-5.34961462020874	12.301275253295898	-36.69312286376953
O	-6.059242248535156	12.521547317504883	-35.735530853271484
O	-4.631328582763672	13.281820297241211	-37.2140007019043
O	-4.596307754516602	14.657556533813477	-36.75727462768555
O	-3.839879274368286	12.962638854980469	-38.3282470703125
O	-3.2192277908325195	13.870230674743652	-38.842933654785156
