18

O	-10.003094382008511	-12.115151098568216	11.28429623578014
O	-9.130337036893346	-11.095766712385295	11.009313585416614
O	-7.951631625253322	-11.210345656656273	11.914274488482423
O	-8.292183863490646	-10.69335964742308	13.15140468358336
O	-6.855366662250864	-10.393015814290719	11.34113825329326
O	-7.136626388608562	-8.962154429264032	11.683711245518762
O	-5.914795442161963	-8.41367741467208	11.961209058356268
O	-6.447543541755097	-10.611256160240876	10.056325296654878
O	-7.400807035701482	-10.676942898277726	9.093336641131408
O	-7.12281028960371	-11.738890774523615	8.256905309345687
O	-8.737768459502373	-10.7635640447016	9.666986593539972
O	-9.72572824285512	-10.678620026150908	8.633692092490888
O	-9.990572915841012	-11.801564229190559	7.857720798055934
O	-9.488715297694531	-12.88498703127288	8.317735192462232
O	-10.147180504980698	-11.824192726002632	6.432193162791855
O	-9.027714834285534	-11.36384547145827	5.6751726311610575
O	-11.475726638014777	-11.797765603052285	6.05210224213387
O	-11.934118933518933	-10.68823647130798	5.789747810696712
