16

O	6.054429834421524	-9.737487009005507	5.725210494041388
O	7.169598022727551	-10.171774884477324	6.04451215205053
O	7.434763753510921	-10.180071642886512	7.4935306182006824
O	7.646904559691397	-11.072448602444748	5.091914369168379
O	7.621116543621244	-11.041570575985835	3.7177407333477417
O	8.564426530882276	-12.172098013491404	3.423566901708435
O	9.486190584395366	-11.479326595596369	2.6754887243974568
O	7.249495055243884	-10.53839574966944	2.482731668777454
O	8.232438443533919	-9.944272059311787	1.6528035632977587
O	6.443486013136904	-11.283762158821826	1.4621908196979976
O	7.201936971109849	-11.981255490473211	0.5451167485178541
O	5.445706708091588	-12.09576401029879	2.216331500903344
O	4.2506759778890935	-12.30277309272945	1.3729946332282266
O	4.787033084339633	-12.528572547205751	0.08872265142557012
O	6.184767548948083	-13.047582389892018	2.9544770284571853
O	7.59886051475205	-13.1050625872417	2.8149291797741554
