22

O	0.843	7.545	14.169
O	1.672	6.633	13.469
O	1.001	6.219	12.154
O	0.66	7.335	11.168
O	1.08	6.822	9.878
O	1.834	5.345	14.285
O	2.312	5.654	15.596
O	2.875	4.413	13.644
O	2.834	3.094	14.2
O	2.712	4.293	12.109
O	4.008	4.337	11.481
O	1.943	5.359	11.423
O	1.911	5.743	10.097
O	2.547	5.131	9.094
O	2.386	5.347	7.65
O	3.596	6.067	7.066
O	3.534	6.134	5.533
O	4.773	6.82	4.91
O	4.555	6.821	3.386
O	5.593	7.675	2.627
O	6.984	7.019	2.693
O	7.943	7.677	1.697
