25

O	2.467	55.629	-5.818
O	3.34	55.754	-4.635
O	4.493	56.703	-4.724
O	5.354	56.779	-3.609
O	5.201	55.986	-2.451
O	4.087	55.03	-2.355
O	3.155	54.883	-3.473
O	1.982	53.918	-3.333
O	2.276	52.517	-2.875
O	3.301	51.66	-3.513
O	3.745	51.954	-4.736
O	4.719	51.094	-5.425
O	5.08	51.333	-6.698
O	4.6	52.525	-7.491
O	3.205	52.35	-8.107
O	2.472	53.63	-8.525
O	1.529	54.146	-7.417
O	0.448	53.152	-7.06
O	2.315	54.261	-6.236
O	2.01	56.537	-6.431
O	4.585	57.471	-5.84
O	6.038	56.047	-1.398
O	3.802	54.121	-0.903
O	1.572	52.072	-1.99
O	4.429	52.231	-8.879
