25

O	-0.3508879244327545	2.211393356323242	-0.9326363205909729
O	-1.0676206350326538	1.3861751556396484	-0.020859094336628914
O	-1.39085054397583	1.9670093059539795	1.187721610069275
O	-2.0962724685668945	1.2946536540985107	2.188108205795288
O	-2.4961495399475098	-0.0087865199893713	1.9749187231063843
O	-2.1931869983673096	-0.6249241828918457	0.7792675495147705
O	-1.4927186965942383	0.07399158924818039	-0.18639345467090607
O	-1.2604697942733765	-0.7136314511299133	-1.4145156145095825
O	-0.8658669590950012	-2.100613594055176	-1.1047704219818115
O	0.1103140190243721	-2.506969928741455	-0.10436895489692688
O	0.8985719084739685	-1.7212657928466797	0.5547594428062439
O	1.8609124422073364	-2.1604185104370117	1.5444386005401611
O	3.0521068572998047	-1.8217369318008423	1.3280949592590332
O	3.5110232830047607	-0.956970751285553	0.04527043178677559
O	1.9867907762527466	-0.36516356468200684	-0.4052414298057556
O	2.615269660949707	0.5047253966331482	-1.6663649082183838
O	2.15877103805542	1.9535499811172485	-1.0227636098861694
O	2.900844097137451	2.8012804985046387	-2.232428550720215
O	0.7647615671157837	1.9499835968017578	-1.7284871339797974
O	-0.829480767250061	3.4174282550811768	-1.0347983837127686
O	-1.046833872795105	3.2940542697906494	1.538598895072937
O	-3.206002712249756	-0.7322666049003601	2.942404270172119
O	-2.7485101222991943	-2.2715582847595215	0.5854373574256897
O	-1.4060790538787842	-3.066426992416382	-1.752353310585022
O	2.591564416885376	-1.8035117387771606	-1.06303870677948
