25

O	2.468834636449426	56.1501290375189	-5.5292073625473215
O	3.3951244661415925	55.90970819879002	-4.406601778727157
O	4.402657314978615	56.89251326997377	-4.274929025732626
O	5.259857472200184	57.01440131111717	-3.1824442989779924
O	5.240988648513093	56.02777246669157	-2.247158393899074
O	4.213866499961286	55.133769520624924	-2.2781201296532974
O	3.373348616201553	54.94544688683708	-3.396757782253711
O	2.230191206003817	54.099644299979765	-2.955311487865499
O	2.7771188476794086	52.719012772271185	-2.7201207926946287
O	2.601857732770654	51.90006972578273	-3.9047765209009997
O	2.6135306508201555	52.35993266977267	-5.166730092634587
O	1.65700685368496	52.09708928630475	-6.2496098309819175
O	1.9504086084932077	52.22012435994912	-7.500575400894082
O	2.4902609660917303	53.52324450595658	-7.824867626410821
O	1.9826211997896004	54.06859342653006	-9.18030842698605
O	1.878675825257723	55.59942784470462	-8.896757334869553
O	1.163313471420841	55.52148196418592	-7.596484034221512
O	0.09247434776805363	54.512965314141546	-7.8670566599334215
O	1.9603553444075508	55.271366192679	-6.4579903395684966
O	2.2044316923811893	57.41246499930487	-5.612402403412741
O	4.410793075522189	58.06658761564085	-5.05892376470319
O	5.983280734440768	56.16597566821468	-1.0594322992266423
O	3.9121252184180144	54.36850651227555	-0.7199066257694495
O	3.0103428029842223	52.077427124004714	-1.678899460822985
O	3.26234805330696	53.83650670799314	-8.86111212177637
