73

O	0.9713771107884617	0.9253028994157699	-3.683836617096154
O	-0.013595798211538224	2.77072353940577	-2.7148622270961544
O	-4.702364199211538	2.79595977940577	-3.1533935870961542
O	-0.1415092722115382	1.78757032140577	-3.4505338370961542
O	1.2988237307884618	0.31010394640577	-2.4507282770961543
O	-1.2754635622115382	1.12074332540577	-3.648992587096154
O	-2.609916979211538	-0.02593543059422998	-2.6257242970961543
O	-2.125423899211538	0.89139645710577	-1.6135777990961542
O	-4.269012769211538	1.69732444840577	-2.338750948096154
O	-3.095070279211538	2.07735910940577	-1.633667852096154
O	-2.2973475992115384	2.8557049494057702	-2.5979348570961545
O	-3.7953824192115384	0.68631405040577	-3.1457829870961542
O	-3.2519336692115384	1.26960347540577	-4.387043807096154
O	-2.2718126792115383	2.07688109940577	-3.789069327096154
O	2.1758150207884617	-2.1562073405942304	-5.999034247096153
O	2.3021822507884617	-0.6109718905942301	-4.243583177096154
O	1.0253211007884617	-0.25252457059423006	-4.487808357096155
O	0.25231594078846165	-0.7295546505942301	-5.542737137096154
O	0.8975650507884618	-1.70217013059423	-6.3283190070961535
O	2.3690239307884617	-0.28196439059422995	-2.9184486070961544
O	2.9319605307884617	-1.3748505705942302	-5.184866337096154
O	-8.627466299211537	2.92533728940577	5.2799419729038455
O	-11.817676889211537	0.83971199530577	5.694813712903846
O	-0.7087290882115382	7.229207429405769	6.199658702903847
O	-0.6203099902115382	3.6518494694057697	4.860298782903845
O	2.9422167907884615	3.73658854940577	3.6070507329038457
O	3.942921610788462	7.36718228940577	3.0970247929038455
O	2.9269241907884616	9.46503803940577	0.1521269329038457
O	2.125950630788462	13.11904429940577	0.1189813729038458
O	3.435748980788462	12.92110979940577	4.934855272903846
O	-5.746136319211539	13.71127849940577	-2.304306913096154
O	-5.810749369211539	10.18959297940577	-3.7312099370961542
O	-3.908977989211538	9.03455294940577	-6.814376037096155
O	-3.3793599892115385	5.327647729405769	-7.280666197096155
O	-2.4261121092115383	2.9074469394057703	-10.040251767096153
O	0.12248622278846177	1.41487192740577	-7.796947777096154
O	2.2512107907884618	4.36420705940577	-6.944485727096154
O	3.885273310788462	7.39204353940577	-8.653408457096154
O	2.7825492307884616	9.98925029940577	-6.105229437096154
O	-0.5604809432115383	10.61750739940577	-4.375258347096154
O	-1.5129283392115382	9.80282432940577	-0.7931910220961542
O	-3.3081701492115383	12.14150269940577	1.5585282529038458
O	1.6113712907884619	-11.78520310059423	-4.830872877096154
O	-1.7171306512115383	-10.14354780059423	-5.453746127096155
O	-4.922985709211538	-9.29930850059423	-3.6206801070961543
O	-7.111606379211539	-6.253950650594231	-3.322572927096154
O	-8.437418739211537	-7.262989700594231	1.8945241229038459
O	-4.942064619211537	-6.34482582059423	1.3582279829038457
O	-2.171314409211538	-8.51543078059423	0.25530825290384573
O	0.36330368078846176	-7.104966870594231	-2.1874387600961542
O	3.7474800107884616	-8.80909841059423	-1.5383087430961542
O	6.951306260788462	-8.11290430059423	-3.434748687096154
O	10.337929910788462	-9.69908280059423	-3.616259527096154
O	10.156346810788461	2.84425658940577	4.758017792903846
O	-3.703880729211538	-7.26224502059423	10.962814222903846
O	-5.342399229211539	-3.9235711005942306	10.089819422903846
O	-2.354153509211538	-1.88909566059423	8.759590622903847
O	1.0564594507884617	-0.7907486005942301	10.013774922903846
O	5.986760380788462	-1.21097940059423	7.600216602903846
O	7.4810783507884615	-1.9913794205942301	4.2053989329038455
O	9.177584210788462	-0.05118489359423006	1.4189215929038457
O	12.757031910788463	-0.96630514059423	0.41428518290384586
O	13.183547310788462	-4.8637569405942305	-4.015909407096155
O	10.773200210788461	-4.85131147059423	-1.1219961750961542
O	7.077963120788462	-3.81692555059423	-1.1327436200961543
O	4.924446040788462	-5.03313251059423	1.9072880429038457
O	1.0878160707884617	-4.40951121059423	1.7817491929038458
O	-0.5322533462115382	-5.91190402059423	4.856742322903846
O	-4.270556479211538	-5.2266140805942305	5.2475639029038454
O	-6.069120249211538	-8.01755846059423	7.005350552903847
O	-8.165540979211539	-5.89224533059423	-7.7729793970961545
O	-11.379874989211539	-1.0910522805942302	-7.495109347096154
O	-11.541509289211538	-0.46122227059422993	-3.650176877096154
