34

O	-1.1829938888549805	0.9325259327888489	-2.1209821701049805
O	-3.111516237258911	0.15755221247673035	-0.6855660080909729
O	-5.170992851257324	-0.9726309180259705	0.24416892230510712
O	-6.7239460945129395	-1.9434444904327393	-1.3165686130523682
O	-5.888207912445068	-1.6031484603881836	-2.3531312942504883
O	-4.7290544509887695	-0.9606989622116089	-2.0562877655029297
O	-2.731820821762085	0.8426243662834167	0.521451473236084
O	-3.5988378524780273	1.9548884630203247	2.4217610359191895
O	-2.3145241737365723	2.2058939933776855	2.8677101135253906
O	9.318562507629395	-1.3879904747009277	-0.4046717882156372
O	8.173774719238281	-1.1563068628311157	-1.1392157077789307
O	8.231528282165527	-1.2160911560058594	-2.390888214111328
O	6.891245365142822	-0.8431397676467896	-0.5257313251495361
O	5.751380920410156	-0.6127678751945496	-1.2652568817138672
O	4.53495979309082	-0.3156285881996155	-0.6802204251289368
O	4.42678689956665	-0.2395697832107544	0.7015846967697144
O	3.1940081119537354	0.06318306922912598	1.3378018140792847
O	2.0210683345794678	0.2988664209842682	0.5385379195213318
O	2.1356520652770996	0.22326159477233887	-0.7936489582061768
O	1.108579158782959	0.42431142926216125	-1.638610601425171
O	-0.11406513303518295	0.7210845351219177	-1.105229139328003
O	-2.3948097229003906	0.24476145207881927	-1.7885686159133911
O	-4.314768314361572	-0.6127669811248779	-0.7461209893226624
O	-4.813961982727051	-0.7728499174118042	1.5307483673095703
O	-6.381474494934082	-1.6370290517807007	-0.02092610113322735
O	-3.9230010509490967	-0.6366581916809082	-3.0955722332000732
O	-3.8159525394439697	1.2716025114059448	1.2458854913711548
O	-4.948668003082275	2.5322999954223633	3.3976194858551025
O	-1.200291633605957	1.783715009689331	2.1522138118743896
O	-1.4279916286468506	1.1134893894195557	0.9952446222305298
O	-0.18960162997245789	0.7901400923728943	0.2917642295360565
O	0.8401933312416077	0.5875527262687683	1.1125891208648682
O	5.567983150482178	-0.4703921973705292	1.4371323585510254
O	6.780758380889893	-0.7666392922401428	0.8538889288902283
