13

O	-35.882408142089844	16.510299682617188	-39.42597961425781
O	-35.747066497802734	16.31645965576172	-37.99601364135742
O	-34.53611755371094	15.431230545043945	-37.731117248535156
O	-34.74375915527344	14.200187683105469	-38.41376876831055
O	-34.412723541259766	15.194405555725098	-36.24720764160156
O	-35.57843780517578	14.514501571655273	-35.735755920410156
O	-34.259002685546875	16.542083740234375	-35.56474304199219
O	-34.222618103027344	16.35489273071289	-34.051979064941406
O	-34.07470703125	17.639406204223633	-33.476806640625
O	-35.373046875	17.49040985107422	-35.844337463378906
O	-35.61177062988281	17.65064811706543	-37.30384826660156
O	-34.5237922668457	18.528188705444336	-37.96691131591797
O	-34.46080017089844	19.744905471801758	-37.21826171875
