13

O	-25.164481766521142	1.3168531574519085	27.519390502655465
O	-26.275098955628074	2.042134416533388	27.57540358623099
O	-26.207715444462657	2.894719332840583	28.763569232933058
O	-25.6464814414315	2.3411564660039277	29.894086495061618
O	-25.217481824469274	3.8022440745026462	28.148519937187196
O	-24.09121160124793	3.071079557665044	28.159349059579956
O	-25.827871098106606	4.40386918702697	26.983607321414997
O	-24.938314579676018	4.458874347612932	25.844209862199047
O	-23.830382850067338	3.7735875114367907	26.182541971032812
O	-27.158389588872907	4.055156854158135	26.77670184640154
O	-26.914645369329715	2.713845045351434	26.460337857689478
O	-26.128449154576188	2.746302738569814	25.163551230473946
O	-25.481158563587865	1.5790724693973264	25.36694797513786
