37

O	-0.518963098526001	10.396564483642578	7.673835277557373
O	-1.1556944847106934	11.224773406982422	7.0528883934021
O	-2.600050210952759	11.256720542907715	7.070267677307129
O	-2.9787755012512207	12.377191543579102	6.269551753997803
O	-1.74430513381958	12.839569091796875	5.483458518981934
O	-0.5333428382873535	12.295988082885742	6.2321624755859375
O	0.561427116394043	11.742321968078613	5.335927963256836
O	-4.130958557128906	11.99079418182373	5.3834547996521
O	-5.337422847747803	12.567444801330566	5.558313846588135
O	-5.471217632293701	13.749134063720703	6.495326042175293
O	-6.598069190979004	12.084003448486328	4.871395111083984
O	-6.438858985900879	10.675110816955566	4.2799601554870605
O	-5.113438129425049	10.625323295593262	3.5187108516693115
O	-3.875649929046631	10.92220401763916	4.350811004638672
O	-7.755133152008057	12.132597923278809	5.85730504989624
O	-8.832221984863281	12.946349143981934	5.788619518280029
O	-9.027094841003418	13.961410522460938	4.687310695648193
O	-9.864093780517578	12.827347755432129	6.884746074676514
O	-9.89357852935791	14.06812572479248	7.606021881103516
O	-11.252740859985352	12.56847095489502	6.311877727508545
O	-11.571346282958984	11.099016189575195	6.106585502624512
O	-11.67599105834961	10.730264663696289	4.634202480316162
O	-12.480358123779297	9.461124420166016	4.372682571411133
O	-13.124359130859375	9.683435440063477	3.014139175415039
O	-14.648048400878906	9.655098915100098	3.1467342376708984
O	-12.272729873657227	11.720720291137695	3.7839837074279785
O	-12.648641586303711	11.058063507080078	2.55971097946167
O	-11.500459671020508	10.94620132446289	1.5790114402770996
O	-11.787479400634766	10.635595321655273	0.12757349014282227
O	-10.238828659057617	11.146919250488281	2.0150933265686035
O	-8.963228225708008	11.073997497558594	1.1950840950012207
O	-7.747247219085693	11.41484260559082	2.0701775550842285
O	-7.499329090118408	10.428983688354492	3.2108099460601807
O	-8.176544189453125	9.35401439666748	3.25005841255188
O	-7.917743682861328	8.11238956451416	3.9643306732177734
O	-7.542230129241943	8.54109001159668	5.374825477600098
O	-6.458930492401123	9.6159029006958	5.408953666687012
