37

O	7.252241114262567	28.070039825122986	-7.041861788903249
O	8.302341892330833	27.872458048136767	-6.217041565061628
O	7.20861951105325	27.893312605454543	-5.446405166716271
O	6.5386210713524955	26.929297486389256	-6.150667201136844
O	7.482132685400015	26.019383165960374	-7.039393862287888
O	8.817443524351694	26.413318673908357	-6.675015508342733
O	9.763920359189235	27.054292382398657	-7.572453177210237
O	5.346143529068961	26.5006817638321	-5.484533806670605
O	4.9124826502522705	27.70142791715417	-4.970101705556681
O	5.628296791846326	28.730681458752336	-4.348021203960567
O	4.863527692475007	26.537865485588434	-4.129974345154928
O	3.5935238710913904	26.564931809429243	-4.050285502389206
O	3.588161447099681	25.148037781856274	-4.768302660497567
O	4.257697623780353	25.621670629663456	-6.096782542656664
O	5.95241751925016	25.812151589777955	-4.999511491840119
O	7.157742291909286	25.252679035015674	-4.79247283357614
O	7.525660062354048	23.951225087153507	-5.6754707464683145
O	8.37868768950328	25.653950457372336	-3.9937083350871054
O	9.429514616926078	26.425175552167016	-4.125362670106712
O	8.275163716950829	27.08749732954653	-3.1894693148006583
O	6.991427917946333	27.34556496454155	-2.4707707667753995
O	6.955031416946813	26.144852440719298	-2.6471072367352004
O	7.906571551709473	24.962317387656107	-2.4143759454940037
O	6.583913871756835	24.729144087862156	-1.688931036805433
O	6.093170877982782	25.79299566828712	-0.8104136065297718
O	6.2050983486125375	25.287139238903904	-3.036727393153809
O	5.526550690370293	24.053093843659223	-2.644213075593736
O	6.19863397077531	23.21348895731886	-3.7447064197573563
O	6.076234230379614	21.83874184461408	-4.437816684074255
O	4.863016701303853	23.3441230686923	-3.979682594721779
O	4.746367194265315	24.5979833031697	-2.9938840865752536
O	3.4145124794910444	24.80963563828843	-2.448619488441077
O	3.7118364493149163	26.291311409435796	-2.618603734079238
O	4.0574664344838425	27.30070929062871	-2.1073351591994993
O	3.0545318380366138	28.290850660774435	-2.29042861498613
O	1.8511147495475972	27.793991581357194	-3.13272406637036
O	2.1490312369228257	26.534586264220383	-3.989278927670072
