89

O	-0.4582548459104475	4.2729349038343285	-1.1572279803731347
O	0.7575165110895523	3.8071913238343287	-0.9642404643731347
O	1.1261844110895525	2.5578548738343283	-1.2829422803731347
O	2.0329467210895524	1.9102673488343287	-0.5633495035431347
O	1.5152144910895524	0.9305006608343286	0.2252333246268653
O	0.31759693108955256	1.7405755688343285	-1.9462225063731347
O	0.19847278108955257	0.3758770878343285	-1.6469289563731346
O	0.6618201010895526	0.1395176798343285	-0.4293402863731347
O	-0.2584008389104475	-0.09297944616567144	0.6117339936268653
O	-0.8357046849104475	1.2946486398343287	0.2636343876268653
O	-0.25428199891044745	2.0526516838343287	1.2350608536268652
O	0.22237969108955258	2.9272025138343283	1.7074480236268652
O	-1.2933010899604476	2.0175609538343284	2.3646162036268654
O	-0.7212966689104475	0.8114736738343286	2.6530965536268654
O	-2.127439024910448	2.7709697038343286	1.6664417736268655
O	-1.6230681469104475	3.9368602038343283	1.4086600336268653
O	-2.5703551989104474	2.406071633834329	0.36523004162686534
O	-2.1022146589104476	1.0451825798743286	0.4063563686268653
O	-2.4982352389104476	0.3067728188343285	-0.8056786093731347
O	-2.8802745489104478	1.0505449231183286	-1.8464054263731347
O	-3.1280635689104477	-0.6874944461656713	-0.5767082716731347
O	-2.3088026389104472	0.3766164788343286	1.5748905036268654
O	4.357101231089553	-13.016696566165672	-0.8327278993731346
O	5.951209011089553	-10.124583366165671	0.9601777236268654
O	5.432165521089553	-6.493197906165672	-0.06634618037313467
O	6.628122031089552	-3.5759508361656716	2.1593127836268655
O	7.610426841089552	0.06168279883432859	1.4937069936268652
O	6.7153507210895516	1.7758407408343286	-1.8036264163731346
O	5.213312711089552	-1.3524007061656715	-3.4519410863731346
O	7.960002651089551	-1.3246437561656714	-5.980160846373135
O	6.457731001089552	1.8976910018343287	-7.461780056373135
O	3.2123259410895524	0.08373273083432853	-8.345003716373135
O	1.5876559010895526	0.7297279688343286	-11.724878016373134
O	4.247806791089552	3.2148435138343285	-12.704280716373134
O	2.6518561510895524	5.563145743834329	-10.208659976373134
O	-0.7577959909104475	6.6081609838343285	-9.394983936373134
O	-2.885819298910447	4.161320673834329	-11.454653616373134
O	-6.016980168910447	5.908685323834328	-10.006621626373134
O	-5.554135108910447	4.721551563834328	-6.431863686373134
O	-3.8367439089104476	1.2722655368343285	-7.108421266373135
O	-4.195853028910447	0.30942618283432854	-10.809754716373135
O	-1.7918541259104475	0.36741526783432854	-13.819862916373134
O	5.338276551089553	-4.746371116165672	-9.524800116373134
O	9.487705441089552	-6.5682597961656715	-1.9635792063731348
O	11.394126541089552	-0.5962396561656715	1.5913869236268652
O	0.7283183110895526	-13.253843866165672	2.1445878236268654
O	1.7297049110895526	-9.827431266165672	3.4659810436268654
O	1.0313039210895525	-6.307376706165671	2.2115212836268654
O	3.326461461089553	-4.385943526165671	4.628068223626865
O	2.3682297010895526	-0.9534808061656714	3.119104803626865
O	2.7558624110895527	1.8955335698343285	5.636346853626865
O	4.233564361089552	-0.40445938616567156	8.147938343626866
O	0.8316847210895526	-2.1191660261656713	8.446853663626866
O	-0.33646155291044755	0.8178224318343286	10.642963483626867
O	2.904341681089553	1.5644092768343285	12.466734383626866
O	5.191391571089552	-1.4237600461656714	13.131367683626866
O	-3.0334931289104476	-9.743239466165672	5.091212513626866
O	-3.6920143389104476	-8.147172476165672	1.6916276536268655
O	-4.204685868910447	-4.431734016165671	0.6479728436268652
O	-4.813746118910448	-3.2467679061656716	-2.8730605163731346
O	-6.853767048910447	-0.19681305616567135	-1.8966864763731346
O	-9.943100778910448	-0.3089415561656714	0.4819935436268654
O	-8.211568868910447	1.0768993129343285	3.624369923626865
O	-11.552250158910448	1.4178112668343286	5.409837603626865
O	-12.665940858910448	4.131785133834328	2.9253345136268654
O	-9.547781808910448	6.289686203834329	3.5101997136268657
O	-7.929389408910447	8.278697693834328	6.418452073626865
O	-5.321586638910448	3.4504738738343286	7.682958313626866
O	-8.225415098910448	1.7438227668343287	9.438124283626866
O	-5.930008468910447	0.3760888168343286	12.175164683626866
O	-3.5444574189104476	-2.5095608061656716	11.476166483626866
O	-8.765128288910448	-5.371250376165672	1.0859239336268653
O	-9.880522588910448	-3.2078875261656714	-1.8611781463731347
O	-9.995444078910449	-5.991057316165671	-4.507912106373135
O	-6.837321018910448	-4.666688806165672	-6.135633676373134
O	-4.068963808910448	-6.903650996165672	-7.386130056373135
O	-6.428400248910448	-9.767275466165671	-3.7391564163731346
O	-3.080602508910448	-11.575084766165672	-3.8640092663731345
O	12.380064841089553	6.681716583834328	0.7353563036268653
O	6.108041531089553	7.022476653834328	9.492288983626866
O	3.191136321089553	6.356037203834329	7.251384163626865
O	5.692834111089553	4.990911543834328	4.621058123626865
O	7.452309341089553	8.363810193834329	4.398888433626865
O	4.163095721089553	10.142136183834328	3.9029076936268656
O	3.1896209210895523	7.734344813834329	1.1761366036268652
O	6.470248131089553	8.375103013834329	-0.7426356873731347
O	5.850049921089553	12.151685933834328	-0.3962079613731347
O	2.2678338210895523	11.95014893383433	-1.7644685863731346
O	3.7899589910895526	11.054038433834329	-5.222385506373135
