36

O	1.847497582435608	0.8193666338920593	0.8132690191268921
O	1.3821393251419067	-0.4719869792461395	1.8345619440078735
O	2.054816246032715	-1.63704514503479	1.0111140012741089
O	2.3271727561950684	-1.1551741361618042	-0.46453657746315
O	1.2656737565994263	0.030283858999609947	-0.46403661370277405
O	3.3760969638824463	0.5287555456161499	0.7287706136703491
O	-0.09838511794805527	-0.6592558026313782	1.3498022556304932
O	-0.9892808198928833	0.3875907361507416	1.3058029413223267
O	-0.422820508480072	-1.787258505821228	1.0133304595947266
O	3.948235034942627	-0.3881117105484009	1.280165433883667
O	4.057938575744629	1.4441032409667969	-0.0628456324338913
O	5.447375774383545	1.4262303113937378	-0.31733325123786926
O	6.257569313049316	0.4886236786842346	0.20321862399578094
O	8.178345680236816	1.430058240890503	-0.8456212282180786
O	7.396275997161865	2.405374526977539	-1.3987911939620972
O	7.586927890777588	0.47885286808013916	-0.04554344341158867
O	6.030319690704346	2.377106189727783	-1.1155426502227783
O	9.893835067749023	1.4178040027618408	-1.1668877601623535
O	-2.3400187492370605	0.3466350734233856	0.8934144377708435
O	-2.9751999378204346	-0.7882857918739319	0.4626215696334839
O	-4.975390434265137	0.4745434522628784	0.1330108642578125
O	-4.311302661895752	1.5901070833206177	0.5683303475379944
O	-4.293551921844482	-0.7181329131126404	0.0835360586643219
O	-2.9994988441467285	1.5541578531265259	0.9527204632759094
O	-6.342065334320068	0.5032070875167847	-0.26928985118865967
O	-7.128327369689941	1.513130784034729	0.07802589237689972
O	-8.9895658493042	0.5856119990348816	-1.0329413414001465
O	-8.182669639587402	-0.4657556116580963	-1.3980768918991089
O	-8.469637870788574	1.6099709272384644	-0.2767694592475891
O	-6.847984790802002	-0.48375511169433594	-0.9993801712989807
O	-6.132724285125732	-1.4455918073654175	-1.3404510021209717
O	-2.3495399951934814	2.6929495334625244	1.3887543678283691
O	1.2737516164779663	-2.2014923095703125	-1.109267234802246
O	1.760439157485962	-3.5339972972869873	-0.7792112231254578
O	2.953977584838867	-3.927755355834961	-1.1897391080856323
O	0.809576153755188	-4.440864562988281	-0.5300300121307373
