95

O	-3.1317156129491526	-1.288926695084746	-4.918665986457627
O	-2.5553972729491523	-1.192007640084746	-6.277371936457628
O	-3.616165432949152	-2.178169021084746	-6.311037386457628
O	-2.8756926329491526	-3.539861691084746	-6.064986766457627
O	-3.472771532949152	-2.690536571084746	-4.992223096457629
O	-1.9836293349491523	-1.2224901040847458	-4.022709706457628
O	-1.3132626769891522	-1.896471061084746	-5.919920246457628
O	-1.1916261529491523	-3.024542751084746	-5.121132176457628
O	-0.7089607469491523	-2.291665711084746	-6.921951816457628
O	-2.094020501949152	-2.0401394810847457	-3.049405324457628
O	-0.6897704579491523	-0.7400180160847458	-4.091987266457628
O	-0.12326514294915225	-0.27427139668474587	-2.885210055457628
O	-0.9806854299491523	0.1682964349152541	-1.856876189457628
O	-0.34912576594915234	2.191092448915254	-1.025620576457628
O	-0.2984484029491523	2.393839018915254	-2.333539667457628
O	-1.2663640271491523	1.302033098915254	-1.157792826457628
O	-0.2042213229491523	1.227720958915254	-3.169455742457628
O	0.28637134705084777	3.055991178915254	0.3136758835423721
O	-0.34862396594915224	-3.849059551084746	-4.570280876457629
O	0.9102626370508475	-3.602659771084746	-4.122600586457628
O	1.298902007050848	-5.855061141084746	-3.615038986457628
O	-0.037164752949152335	-6.076077951084746	-3.962096226457628
O	1.7590019270508477	-4.727523191084746	-4.322605406457628
O	-0.8282775009491523	-4.8865371110847455	-3.858667156457628
O	2.0811272470508477	-7.052891651084746	-3.503325216457628
O	3.209771877050848	-7.272776131084746	-2.725650774457628
O	3.9539309370508473	-8.653006771084746	-4.049128436457628
O	2.9636447070508476	-8.459176851084745	-5.074639776457628
O	4.304881137050848	-7.423089381084746	-3.593844806457628
O	1.8433319070508478	-7.878371361084746	-4.578899456457628
O	0.8497229770508476	-7.763829901084746	-5.327768666457628
O	-2.1125239199491523	-5.307538221084746	-3.6472452064576277
O	-2.6106182729491523	-4.787969191084746	-6.665457396457628
O	-2.7007656429491522	-5.092368401084746	-8.128702076457628
O	-3.9182214329491525	-4.272955381084746	-8.307552296457628
O	-2.0325023219491523	-4.124198021084745	-8.943213606457629
O	-5.307493562949152	10.271295208915253	-2.684810234457628
O	-4.914540112949153	13.966097908915254	-1.980035741457628
O	-15.055824622949153	-0.5912963080847459	5.195354253542372
O	-12.419678322949153	-2.6933465710847457	3.5125692135423723
O	-9.293551502949153	-2.022529341084746	5.687071403542372
O	-2.1964571769491523	-5.840280631084746	7.941974163542372
O	-2.0825281469491523	-9.697930011084745	7.6415353535423725
O	-3.1418352429491523	-9.254770221084746	3.9354303535423716
O	-6.480301842949152	-7.6741615710847455	5.233037543542372
O	2.9931790070508475	-14.602772791084746	2.4748973735423716
O	1.392285917050848	-12.900638191084745	-0.5696976264576279
O	4.468477467050848	-13.951627391084745	-2.539826645457628
O	6.685844487050848	-11.224824191084746	-0.804286126457628
O	4.017251957050847	-9.251228851084745	1.1147232235423719
O	2.399032097050848	-7.884364251084746	6.697475593542372
O	1.085107857050848	-7.655371311084746	10.23715686354237
O	-1.7584489279491522	-9.055550831084746	12.335466563542372
O	-9.486487022949152	4.256558038915254	1.159946933542372
O	-9.753083402949152	5.157791968915254	-2.541658769457628
O	-9.408011192949154	8.878626758915255	-3.3874397664576277
O	-7.784420032949153	7.756418348915254	-6.730387736457628
O	-6.244839202949152	4.560001708915254	-8.024422136457627
O	-9.254173862949152	4.010752318915254	-10.333580986457626
O	-13.390977322949151	4.803475558915254	-1.225251350457628
O	14.449470377050847	0.06852501991525412	-3.563947516457628
O	10.406427977050846	-0.46234946008474587	-6.752758076457628
O	9.61374707705085	-3.4818725010847458	-8.94650356645763
O	9.41876867705085	-5.644286641084746	-5.805303676457628
O	11.843274977050847	-6.392387971084746	-2.965843697457628
O	11.713832577050848	-3.934915321084746	-0.08689618645762787
O	8.987250177050846	-2.5984784310847457	5.317020953542372
O	9.58010967705085	1.062660308915254	4.883519303542372
O	8.649298547050847	3.700591238915254	2.288721933542372
O	6.822586577050848	6.965836888915254	2.6488923535423723
O	5.157333657050848	9.475422138915254	0.3566799035423718
O	-0.7007143259491523	12.165820408915254	-2.893178143457628
O	-0.5435981469491523	8.649686138915254	-1.3637310804576281
O	-2.5070380429491523	6.080055418915254	0.5485243635423722
O	-4.3813799429491525	3.648519908915254	-1.701221228457628
O	-6.520240062949152	0.48263686191525407	-1.502909537457628
O	-8.862041892949152	0.556790333915254	1.446798133542372
O	-6.403083422949153	2.468360558915254	3.5880008035423723
O	-4.589951282949152	-0.9076779180847458	3.8503011635423716
O	-4.0015636529491525	-2.063982441084746	7.474258713542372
O	-0.4710784679491523	0.6752374989152541	5.318951443542372
O	0.7146743470508476	-2.381803641084746	3.298757543542372
O	1.1111390870508475	-2.0687664510847457	-0.601729406457628
O	2.4458042470508476	0.17805722391525408	-3.5658659564576283
O	2.530783297050848	0.09780264591525412	-7.411594706457628
O	-0.8390545759491523	1.783681798915254	-8.137897446457629
O	-1.6342899309491523	4.659667488915254	-5.919028776457628
O	0.2095404870508477	8.094301388915254	-6.143719226457629
O	2.1132771370508476	6.940834078915254	-9.309946366457627
O	6.596628387050847	5.210429478915254	-6.852915296457628
O	6.072948527050848	5.353224138915254	-3.039736051457628
O	3.5947313970508477	3.908985268915254	-0.4420626364576281
O	4.979366947050848	0.7353694689152541	1.2674903735423722
O	4.3649096470508475	0.25414136491525413	5.003799123542372
O	5.009602657050848	-2.640441651084746	7.369830753542373
