16

O	64.991	33.147	27.709
O	66.082	33.45	26.888
O	65.881	34.164	25.729
O	64.613	34.572	25.342
O	63.517	34.265	26.156
O	63.704	33.557	27.329
O	65.194	32.466	28.872
O	65.112	38.549	25.253
O	65.734	37.183	25.066
O	65.271	37.15	22.615
O	66.714	37.416	22.225
O	64.442	35.323	24.065
O	63.71	34.885	23.207
O	67.314	33.028	27.316
O	65.175	36.464	23.903
O	68.456	33.862	26.985
