81

O	2.075070994481539	-0.8008808508955381	-1.207952655673846
O	1.8689637244815391	-1.1238560238955382	-2.544162689673846
O	0.6675345944815391	-0.673745141895538	-3.014493659673846
O	-0.379766483518461	-0.31216683589553806	-2.152504599673846
O	0.08296623448153906	0.31347186710446195	-1.0574984739738462
O	1.345744664481539	0.21734341800446194	-0.5681566396738461
O	3.277072914481539	-0.8871337838955381	-0.5552083716738462
O	-0.789766870518461	-0.9802098138955381	-5.648149279673846
O	-1.8058136385184609	-0.8327612908955381	-4.560385759673846
O	-0.5711487855184609	-2.6947955038955382	-3.6469873296738458
O	-0.786042059518461	-3.2696233638955383	-5.0175760296738465
O	-1.680184491518461	-1.0531140838955382	-2.1783246396738463
O	-2.719321545518461	-0.45328371189553807	-1.8923052696738463
O	2.783610654481539	-1.401802193895538	-3.5549467996738464
O	-1.665545549518461	-1.729682433895538	-3.4485844996738457
O	2.7806702444815388	-2.7805071938955384	-3.9468240996738464
O	9.80233184448154	-4.913537073895538	1.953268650326154
O	7.04304123448154	-3.053284023895538	3.8094721903261544
O	5.550278454481539	-6.299036773895538	5.192791410326154
O	5.560865854481539	-7.695887323895538	1.6406108703261537
O	3.7465814444815386	-4.814931643895538	0.28302613032615387
O	1.164230074481539	-5.119700543895538	3.0043559303261542
O	0.831221854481539	-8.846523003895538	2.095940280326154
O	0.1983996844815391	-7.8335465438955385	-1.5565136446738461
O	-2.524217055518461	-5.368798163895538	-0.45857286067384617
O	-4.173088775518461	-7.977768293895537	1.723209250326154
O	-4.120151135518461	-10.476480783895537	-1.198588464873846
O	-5.888248525518461	-7.873283523895538	-3.281998179673846
O	-8.798013135518461	-7.235085723895538	-0.8655487326738461
O	-9.10652453551846	-10.964676383895537	-0.16165524967384615
O	-12.06534275551846	-9.010492033895538	-4.379858489673846
O	3.8574246144815385	-3.6795010638955383	13.981294830326153
O	3.3646354144815387	-0.9785685838955381	10.038671230326154
O	-0.439596194518461	-1.2311987238955382	9.681599030326153
O	-2.258566205518461	-3.5507139238955383	7.353562880326154
O	-5.9749947955184615	-4.027150763895538	6.620193400326154
O	-5.319639785518461	-4.5679325138955384	2.913765450326154
O	-7.102629155518461	-2.9452111138955384	-0.049246229673846065
O	-5.737873785518461	0.5366388731044619	0.7919971203261538
O	-4.9917873255184615	3.295464136104462	-1.739688424673846
O	-7.049843105518461	6.057521906104462	-3.4514908996738463
O	-5.7584344555184614	9.600054036104464	-3.727107879673846
O	-4.642064675518461	8.782255666104463	-7.294453909673846
O	-2.7045232355184607	5.696750806104462	-6.187191079673846
O	-0.931352296818461	7.799250566104462	-3.579544189673846
O	0.107607594481539	10.539946216104463	-6.044020339673846
O	1.1054800044815387	7.8919321661044615	-8.609953279673846
O	4.005209334481539	6.657734406104462	-6.508703559673846
O	1.9200455044815388	4.816803686104461	-3.946686049673846
O	0.4564196744815391	2.3848243961044617	-6.4677928096738455
O	3.812685274481539	1.421088336104462	-7.997542899673846
O	5.161471194481539	1.596833566104462	-11.519898569673847
O	11.65733274448154	-5.369225193895538	-3.8520263796738465
O	11.87059734448154	-4.082393593895538	-8.988839479673846
O	8.64105282448154	-3.1858620038955383	-7.211879409673846
O	9.808097844481539	-0.04866499589553808	-5.476738199673846
O	10.46697824448154	-1.7050999938955382	-2.0828803986738462
O	8.450977094481539	1.005571644104462	-0.30108498067384615
O	11.23659314448154	3.520304426104462	-0.7844160516738461
O	13.66301154448154	1.3543483961044618	1.2636357603261537
O	11.75165964448154	2.881136616104462	4.235860820326154
O	14.30286864448154	5.721659836104462	3.685171520326154
O	1.427317444481539	6.985307216104462	5.010347310326154
O	-2.207580565518461	6.9775957961044615	6.105840180326154
O	-4.560542595518461	5.113463596104462	3.877530230326154
O	-8.18669182551846	4.165007546104462	3.294890720326154
O	-9.637102135518461	2.483613066104462	0.21949192032615383
O	-8.85619222551846	8.592077226104463	4.225974430326154
O	-5.674413255518461	10.408812916104463	3.1208885603261542
O	0.783044014481539	11.149204716104462	2.3016352603261536
O	-8.834290515518461	3.291127506104462	9.817908430326153
O	-11.739053955518461	1.3239773961044619	8.304999170326154
O	-9.656681175518461	0.12553905031446194	5.379147040326154
O	-5.974546735518461	-0.37005213389553804	4.705176830326154
O	-2.582182425518461	1.2836779561044618	4.832351080326154
O	-0.499145525518461	2.5193134461044617	7.6837385503261535
O	3.1807459244815393	3.363400576104462	7.3217772603261535
O	3.781986354481539	-14.170114683895537	4.876550020326154
O	2.822589784481539	-4.366930533895538	-14.341957869673847
O	-0.016017246518460926	0.943917422104462	-13.950594969673848
O	-3.521450535518461	1.4754965461044618	-15.330200269673847
