28

O	-30.40399757121089	4.363438985843754	24.948486754489423
O	-31.11271402127911	3.084400161958066	24.748381945605722
O	-31.04300864190006	2.093502287694884	25.4992518104242
O	-32.151914214809835	3.364576768867235	23.80959582165276
O	-33.39767611048593	2.7305585684274667	23.7398749968616
O	-34.49392501234941	3.408568821078857	23.214932695887395
O	-34.413327469624875	4.68811179871968	22.73896466942977
O	-33.12211355806723	5.205286614241265	22.700921172930688
O	-32.23317595617196	4.685569369655541	23.64105937646571
O	-31.32727175344282	5.267947316752732	24.648459016296023
O	-30.885505230876095	6.615264350897181	24.560386780139375
O	-29.57136228164746	6.930796140808823	24.934131511012183
O	-29.07895937381299	6.009166173996122	25.88307046150447
O	-29.143427449796576	4.753189428417857	25.27383739173581
O	-28.508212341375703	3.5423816013506952	25.66737271446703
O	-28.580774809767153	2.5548500920268635	24.859548777227808
O	-29.006408456752443	3.044476464701446	26.949139803910093
O	-27.993017452429086	2.5208469587983	27.790548771501612
O	-26.995392676457925	3.6376915292530585	28.16872765133165
O	-26.911376652122684	4.457549071216439	27.045664234115648
O	-25.555086423704832	4.647190088688034	26.682873084502017
O	-24.63514834449728	5.05963803464511	27.843940365027272
O	-25.199643815518883	3.2639067310569247	26.357318101046207
O	-25.59686028064832	2.957651641635316	25.101217646811012
O	-25.648543867489497	2.0642015981315502	27.083847128805584
O	-26.41609036939653	1.1197019487990199	26.487243027551287
O	-25.989964364928326	2.5878137608945804	28.402983565691624
O	-24.880897841028755	2.784733439333642	29.079172730021078
