77

O	-0.11051326840857173	1.8136013307959185	4.95562000055102
O	0.7208347605914283	1.9383164747959185	6.1687019605510205
O	1.7552422105914285	1.2873204117959183	6.406921070551021
O	-0.09840175840857168	2.6081134847959184	7.1278572405510205
O	-0.04714780340857172	2.446682114795918	8.517128890551021
O	-1.1848872224085718	2.674923714795918	9.285555050551022
O	-2.3759407694085715	3.0719442047959182	8.743302400551022
O	-2.3198363894085716	3.3558810547959186	7.38227976055102
O	-1.3461657944085719	2.6678147647959185	6.6592954805510205
O	-1.3472970324085716	1.8455599367959183	5.43513199055102
O	-2.3929097094085714	1.9389366447959184	4.477973440551021
O	-2.083391239408572	1.8400846447959183	3.1139192905510207
O	-0.9085957224085717	1.0835918067959183	2.9141153105510207
O	0.10297129459142829	1.7453510247959183	3.6152612005510205
O	1.5119959105914282	1.5797898867959184	3.507265740551021
O	2.2484707405914284	2.4155561647959183	4.133494820551021
O	1.9513864905914284	0.25588144079591835	3.9468543105510205
O	2.964410030591428	-0.3087109452040816	3.1319083105510206
O	2.4240982405914284	-0.5333507552040816	1.7024971105510205
O	1.5498780905914282	0.5247731127959183	1.4645695378510206
O	1.8780255905914285	1.1606287657959182	0.24182217055102062
O	2.058918240591428	0.20293741279591837	-0.9475397294489796
O	3.218776640591428	1.6458244527959183	0.5776347815510207
O	3.1413623805914286	2.8027868947959185	1.2739151785510205
O	4.225610560591429	0.9194434250859184	1.3696601289510206
O	4.6715898405914285	1.3955219727959183	2.5577659205510206
O	3.815285200591428	-0.4738416752040816	1.2238920925510206
O	4.193749210591428	-0.9040447852040817	0.041636630551020515
O	0.46678926359142825	2.8125036647959183	-8.72320108944898
O	5.129261870591429	-1.6008260752040817	-7.982062389448979
O	12.733753190591427	1.5689758457959182	-0.0925550494489793
O	13.931695790591428	-0.8924960552040816	-2.7926153894489794
O	10.900072590591428	-3.2115653752040814	-2.5558550294489795
O	11.946523690591428	-3.8944921452040813	1.0787880445510205
O	15.517531790591427	-4.869850585204081	0.11217295055102072
O	-3.2363983894085715	-0.07400115520408168	-9.15820848944898
O	-0.8524412474085716	-2.9671147752040814	-9.77212668944898
O	1.0397245505914283	-5.057408155204081	-7.273757579448979
O	-0.3865807383885717	-8.511841015204082	-8.03760396944898
O	4.077056320591429	-7.659847695204082	-2.916750839448979
O	5.485121800591428	-8.597973695204082	0.5655569215510207
O	-2.839383229408572	-4.3013955152040815	-4.8668273894489795
O	-2.5236270794085716	-7.454580225204081	-2.7645164594489797
O	-0.1673800084085717	-7.9086073152040814	0.18815217055102074
O	-1.6783531794085718	-10.12328881520408	2.8510879905510205
O	1.7049542505914281	-10.37363691520408	4.621180990551021
O	-6.275098389408572	-2.5680446452040817	-2.146999789448979
O	-5.023077859408572	-4.661844005204082	0.6532697935510207
O	-1.7012007594085716	-3.954366425204082	2.1598915145510205
O	0.4561851065914283	-5.603315485204082	4.790031350551021
O	-2.5974605894085716	-6.126783625204082	6.99315748055102
O	-1.1445591264085717	-4.579512735204082	10.10814796055102
O	-0.11520423840857169	-7.662614235204082	12.03442641055102
O	-11.362875709408572	-9.657351615204082	6.56692833055102
O	-10.593772009408573	0.024411117795918313	4.26520866055102
O	-7.092106989408571	-1.1991786452040816	5.04589164055102
O	-8.223892829408571	-4.8155513452040815	4.853665750551021
O	-10.848305209408572	-4.544208975204081	7.50513929055102
O	-10.835193109408573	0.7427907457959183	9.131832530551021
O	-10.911990409408572	5.141670314795919	3.0065631605510204
O	-7.264941519408572	4.493858594795919	2.1695156655510206
O	-4.991164219408572	5.967462574795919	4.81866887055102
O	-3.376686179408572	9.018780764795919	3.2224780305510206
O	-0.0974280354085717	7.340236984795919	2.1863914095510206
O	2.7416720305914284	9.812609154795918	1.3878985975510205
O	0.6773466305914282	12.296749584795919	3.3220056405510205
O	-7.900644559408572	7.599721884795918	-2.1001704394489797
O	-4.374041799408571	8.842901724795919	-1.3073231294489795
O	-1.1001883494085716	7.404251714795919	-2.60659572944898
O	2.324998750591428	8.99446207479592	-3.0918409194489795
O	5.857725900591428	8.356400864795917	-4.29685636944898
O	10.676356690591428	10.683525074795918	-0.6145520994489793
O	10.237667790591427	6.917275544795919	-0.19097510944897933
O	10.775532190591427	4.509563024795918	-3.1189220894489793
O	7.942522190591428	2.4114550147959184	-4.56712225944898
O	-4.670081739408571	10.392119674795918	-5.76139442944898
O	-2.4384148894085715	7.539971304795919	-6.899218429448979
