16

O	-9.582453727722168	-11.482183456420898	-60.43342208862305
O	-8.72720718383789	-12.28367805480957	-60.003074645996094
O	-7.236863136291504	-11.93814468383789	-60.04402542114258
O	-9.05827808380127	-13.472567558288574	-59.38935852050781
O	-10.408676147460938	-14.067286491394043	-59.220584869384766
O	-10.831314086914062	-14.52322006225586	-60.643436431884766
O	-10.499692916870117	-15.886917114257812	-60.809669494628906
O	-12.334124565124512	-14.33337688446045	-60.82475280761719
O	-12.729096412658691	-14.813302993774414	-62.09204864501953
O	-11.501218795776367	-13.13963508605957	-58.6223258972168
O	-12.027463912963867	-12.17501449584961	-59.60639953613281
O	-12.604925155639648	-12.813653945922852	-60.81425476074219
O	-12.98563289642334	-11.180785179138184	-59.08055877685547
O	-14.12213134765625	-11.083761215209961	-60.11579895019531
O	-14.106575965881348	-12.460336685180664	-60.79166030883789
O	-14.826719284057617	-13.395994186401367	-59.96940231323242
