27

O	21.03	24.009	29.256
O	20.87	22.477	29.251
O	21.724	21.821	28.249
O	21.547	22.504	26.975
O	22.313	23.826	27.037
O	21.999	24.549	28.282
O	22.47	25.869	28.457
O	23.389	26.428	27.566
O	23.819	27.755	27.71
O	22.009	26.643	29.518
O	22.471	27.957	29.661
O	23.358	28.543	28.754
O	23.753	29.812	28.968
O	24.842	30.429	28.472
O	25.786	29.832	27.713
O	24.93	31.755	28.691
O	25.945	32.478	28.244
O	26.946	31.872	27.505
O	26.865	30.501	27.258
O	27.837	29.897	26.443
O	29.207	30.663	25.737
O	29.677	29.286	24.871
O	30.676	29.188	24.162
O	28.842	28.279	25.139
O	29.025	26.926	24.541
O	27.837	28.572	25.975
O	26.804	27.516	26.378
