27

O	6.09100341796875	1.7630352973937988	-0.76633620262146
O	7.61482572555542	1.6998785734176636	-0.7358403205871582
O	8.070451736450195	0.33527570962905884	-0.6406903862953186
O	7.719675540924072	-0.2536866366863251	0.6378098726272583
O	6.587802886962891	0.4902864396572113	1.2856992483139038
O	5.6259684562683105	0.9382192492485046	0.31897109746932983
O	4.239500045776367	0.605155348777771	0.3849027454853058
O	3.3558316230773926	1.0599321126937866	-0.5689233541488647
O	2.001974105834961	0.7401921153068542	-0.5123777389526367
O	3.7264626026153564	-0.1790807694196701	1.3964436054229736
O	2.3704099655151367	-0.5011481046676636	1.4557435512542725
O	1.4885512590408325	-0.04426198452711105	0.49933308362960815
O	0.1130983904004097	-0.39638394117355347	0.5977723002433777
O	-0.8602746725082397	0.022120537236332893	-0.3259177505970001
O	-2.1330480575561523	-0.3480229079723358	-0.16905318200588226
O	-0.5190209150314331	0.7887493968009949	-1.3607388734817505
O	-1.4336731433868408	1.2156240940093994	-2.2786953449249268
O	-2.74596905708313	0.8093419671058655	-2.0802981853485107
O	-3.0918595790863037	0.018572531640529633	-1.0110148191452026
O	-4.498702049255371	-0.38701409101486206	-0.8427941203117371
O	-5.864451885223389	-0.02690161019563675	-1.8020853996276855
O	-7.0342230796813965	-0.8751817941665649	-0.9003035426139832
O	-8.291279792785645	-0.9785952568054199	-1.1352717876434326
O	-6.3259453773498535	-1.397978663444519	0.09785377979278564
O	-7.034895896911621	-2.225429058074951	1.111697793006897
O	-5.044914245605469	-1.1648286581039429	0.14702896773815155
O	-4.127298355102539	-1.7078698873519897	1.240309715270996
