25

O	-42.944	7.457	-16.929
O	-41.99	7.199	-18.101
O	-40.714	6.544	-17.594
O	-41.062	5.165	-17.03
O	-42.057	5.24	-15.877
O	-42.7	3.917	-15.841
O	-44.065	3.993	-16.104
O	-44.977	2.956	-16.308
O	-46.292	3.231	-16.646
O	-46.678	4.554	-16.82
O	-45.762	5.59	-16.65
O	-44.439	5.316	-16.336
O	-43.232	6.225	-16.028
O	-43.547	6.879	-14.684
O	-42.418	7.898	-14.616
O	-42.347	8.464	-15.991
O	-40.924	8.759	-16.242
O	-40.191	7.452	-16.521
O	-39.095	7.217	-15.709
O	-38.345	6.051	-15.831
O	-38.996	4.782	-15.58
O	-39.869	4.282	-16.59
O	-40.349	2.987	-15.844
O	-41.868	2.807	-15.908
O	-42.432	1.568	-15.921
