31

O	-0.743702714303992	6.588976801259928	27.62496081182808
O	-1.4228212629112913	8.089231530713528	27.02571874506745
O	-2.599657539956471	8.499545807074956	27.523651833591583
O	-3.0673308243086046	9.558068143651443	26.95390486556974
O	-1.4621801543599593	8.88740077658825	25.506041294733965
O	-2.801671146085644	10.014381557197797	25.713087360223618
O	-3.500352073184195	11.008776120508527	24.769863832121466
O	-3.7201346498336827	10.496610451261592	23.517023724166144
O	-4.159069327001287	12.076773925866785	24.6798276194672
O	-4.582441722575973	12.306354072530315	23.388128036910857
O	-4.040958206114988	11.37348520664053	22.473811439349948
O	-2.8076290366215657	12.069603517477589	21.94114957904875
O	-2.6443657190366423	13.311603092218594	21.364373010052386
O	-3.8908269690637676	13.773815045417987	20.74107511902027
O	-3.149373540469238	14.23420987548473	19.536499110442694
O	-2.7096638656965046	12.948089003325483	18.900870613149376
O	-1.8176026956674407	12.863179878887285	20.17970698235824
O	-4.489681390439978	12.568925532384135	20.453247301692464
O	-3.2802469894085595	11.628957989492765	20.667951280615767
O	-3.55771731078599	10.506173670307813	19.9242773340981
O	-3.102109032646413	9.360550257523727	20.084416415516486
O	-5.508240801276617	11.636557708315095	20.646052434285405
O	-6.468480012370694	11.123822340387326	21.24859912467287
O	-4.938648133532622	10.614503199401263	19.756876046538043
O	-5.564092638818938	10.522086858644153	18.509685756186798
O	-6.202062974977835	9.148444916361314	18.82217539865944
O	-5.253609776858091	8.154448855411449	18.234449716845678
O	-5.79882624979734	7.2886833798942785	17.243367759781542
O	-7.256005331133159	7.182332759907017	17.298192145674214
O	-5.25762734827614	5.96068956619697	17.191374964257175
O	-5.5121921074028215	7.902106363568036	15.94217069437032
