31

O	7.831359386444092	0.3309253454208374	2.5810277462005615
O	6.380399227142334	-0.37607356905937195	1.9355895519256592
O	5.882289409637451	-1.6391332149505615	2.019824504852295
O	4.724398612976074	-1.9037798643112183	1.4149690866470337
O	5.179708003997803	0.38430532813072205	0.9982284903526306
O	4.090574741363525	-0.9233786463737488	0.7466154098510742
O	2.836158514022827	-0.8850055932998657	-0.006108618341386318
O	2.361712694168091	0.20734308660030365	-0.6138190031051636
O	1.9658077955245972	-1.8041659593582153	-0.24493266642093658
O	0.9634289741516113	-1.3385900259017944	-0.9767736792564392
O	1.1827456951141357	-0.06505128741264343	-1.2288672924041748
O	0.4549311697483063	1.0438429117202759	-2.0140700340270996
O	0.6538361310958862	2.3108859062194824	-1.0069881677627563
O	0.31248897314071655	1.3960195779800415	0.27466633915901184
O	0.001823830301873386	2.6951918601989746	1.1718064546585083
O	-0.7694355845451355	3.5677378177642822	0.2676514983177185
O	-0.7450975775718689	2.9758942127227783	-1.1150104999542236
O	-1.2687586545944214	1.1284692287445068	-0.12516726553440094
O	-1.136493444442749	0.8534758687019348	-1.7354758977890015
O	-1.2581205368041992	-0.6718169450759888	-1.7755385637283325
O	-0.9017531275749207	-1.1886632442474365	-2.8958005905151367
O	-1.3189349174499512	-0.30983948707580566	0.3859195411205292
O	-1.0073727369308472	-0.5638547539710999	1.570626974105835
O	-1.7292945384979248	-1.1680623292922974	-0.5971625447273254
O	-2.5090653896331787	-2.4102513790130615	-0.513463020324707
O	-3.9609215259552	-2.0124118328094482	-0.6585114002227783
O	-4.272563457489014	-1.064501166343689	0.47991400957107544
O	-5.6522088050842285	-0.6178616285324097	0.43513184785842896
O	-6.480103015899658	-1.5429456233978271	1.1803922653198242
O	-5.705463409423828	0.7263524532318115	0.9846876263618469
O	-6.106076717376709	-0.5523531436920166	-0.9393622279167175
