25

O	18.664	17.511	44.248
O	17.179	17.81	44.524
O	16.208	17.733	43.322
O	16.66	18.118	45.8
O	17.227	18.266	47.078
O	16.904	19.693	47.609
O	15.597	20.168	47.737
O	15.321	21.457	48.194
O	14.552	19.357	47.413
O	13.413	19.63	48.276
O	17.923	20.569	47.984
O	19.216	20.159	47.89
O	17.663	21.863	48.441
O	18.862	22.751	48.828
O	19.99	22.204	48.847
O	18.655	23.948	49.134
O	16.341	22.318	48.569
O	15.904	23.717	49.039
O	15.712	23.837	50.54
O	15.198	25.23	50.954
O	14.802	26.175	50.009
O	14.335	27.432	50.413
O	14.27	27.741	51.771
O	14.667	26.795	52.728
O	15.13	25.547	52.313
