79

O	-3.3544182090462957	2.8610212604944447	-1.8692833080555555
O	-3.7704637390462956	2.167961150494445	-0.6926989424555557
O	-5.176756209046296	2.2343684704944446	-0.40278122305555575
O	-3.078209249046296	1.270173210494445	0.046846229944444207
O	-1.639695164046296	1.504611170494445	-0.5128181110555557
O	-1.562235156046296	0.19692380549444494	-1.1303439710555558
O	-1.567349794046296	-0.7268297885055551	-0.05109223305555577
O	-0.7742498360462959	-1.8428082495055549	-0.25525422405555576
O	-2.487568249046296	-0.549160580505555	0.9513287719444442
O	-2.580145179046296	-1.517052789505555	1.972165961944444
O	-1.3396468816462959	-0.14783394780555506	-2.4200930180555558
O	-0.9902825330462959	0.8178770684944449	-3.330925418055556
O	-0.9983205760462959	-1.464500199505555	-2.6913656680555555
O	-0.5844631620462959	-1.951944209505555	-4.000067158055556
O	-0.6704361850462959	-3.0618129495055553	-4.788418978055556
O	0.19383599095370396	-1.201038829505555	-4.592532388055556
O	-0.48134415004629594	-2.128545789505555	-1.5530965550555558
O	1.0249415109537041	-2.041061689505555	-1.8289238880555558
O	1.022293490953704	-3.138538969505555	-2.809301368055556
O	0.43957058095370405	-4.294744499505555	-2.0437145280555558
O	0.6123463609537041	-4.291400929505555	-0.7027263489555557
O	0.935974850953704	-5.439610159505555	-0.08347646505555573
O	0.9123366809537041	-6.608727409505555	-0.7606517210555558
O	0.469635300953704	-6.606289259505555	-2.0291582080555557
O	0.5222882809537042	-5.454415179505554	-2.743472438055556
O	7.119188620953704	10.580006210494446	-5.852094808055556
O	11.851696870953704	8.913463830494445	-4.694009518055555
O	10.967218870953705	9.969246010494444	-1.1451239470555556
O	8.311062450953704	-2.709671909505555	4.416707301944444
O	6.330513780953704	-9.110479679505556	8.744423391944444
O	7.017445800953704	-7.743901849505555	4.074064481944444
O	7.883603790953705	-11.294524389505554	3.1102721519444443
O	9.488340370953704	-7.280696549505555	-0.0798587050555557
O	7.4184219909537035	-9.798376329505555	-1.9807922280555559
O	9.082280670953704	-6.341753619505555	-5.685326328055556
O	-3.7352292990462956	-13.424343789505555	5.781649451944444
O	-1.3103416125462959	-10.438080289505555	5.565269261944444
O	-3.907883639046296	-7.773143869505555	6.414901581944444
O	-6.161237299046296	-9.213363699505555	3.679536491944444
O	-3.4012368190462956	-9.368999079505555	1.1190381319444445
O	-2.712078319046296	-5.641055469505555	1.866542891944444
O	-6.250524579046296	-4.738709819505555	1.5011420819444443
O	-6.647801559046296	-6.549655179505555	-1.7603320230555557
O	-3.636914639046296	-5.146978849505555	-3.1429872680555557
O	-4.936942349046296	-2.053325789505555	-2.382348058055556
O	-8.158090859046297	-2.7231666895055553	-4.146425708055555
O	-6.245688339046295	-3.5463727995055554	-7.318564558055556
O	-4.274635759046296	-0.30879646150555506	-7.465054298055556
O	-7.565860439046296	1.655770320494445	-6.801368408055556
O	-8.984782219046297	-0.020254526205555054	-9.873529108055555
O	-5.921049609046296	1.157027980494445	-11.801837578055554
O	-6.383055519046295	4.675998720494445	-10.418662668055555
O	-9.334209179046296	12.163538710494445	-6.2905730080555555
O	-7.671237379046295	8.924808990494446	-5.218714348055556
O	-6.985400039046295	10.279954310494444	-1.6830834750555557
O	-2.377560307046296	9.541859110494444	-2.650215758055556
O	2.855725310953704	9.402769010494445	-2.3395732580555557
O	4.608789220953704	5.893534290494445	5.234933021944444
O	3.491179940953704	5.582101110494445	1.649905961944444
O	4.985885450953704	4.581721750494445	-1.6981822150555557
O	3.720250400953704	1.384865980494445	-3.190126388055556
O	4.139220660953704	-0.617185957505555	-6.441933048055556
O	4.7502404409537045	2.306407620494445	-8.667965468055556
O	7.302034120953705	3.744750490494445	-6.229621198055556
O	9.445218270953704	0.5838333494944449	-5.967637028055556
O	8.337723890953704	0.07739777049444495	-2.3397160680555555
O	7.4659427709537045	2.0605629304944446	0.7666042819444442
O	5.1649303309537045	0.6613114294944449	3.486097101944444
O	5.484388170953705	2.396376180494445	6.880621621944444
O	2.626271540953704	4.064953020494445	8.700427821944444
O	3.4125996309537046	2.1209821404944447	11.898500621944445
O	3.3794130909537046	-1.232721129505555	10.079866221944444
O	-0.03265670904629592	-0.45142366750555507	8.606877631944444
O	-7.949235629046296	1.8257371804944451	7.3913039919444445
O	-4.907743559046296	4.032261950494445	6.442236781944444
O	-4.602218419046296	6.341175420494445	9.488613121944445
O	-5.4316747290462954	9.215668320494446	4.993644541944444
O	-13.802770129046296	4.783231540494445	4.355405661944444
O	-13.311527529046296	-11.394334289505554	1.0170708619444442
