40

O	3.9103689193725586	-0.008398640900850296	0.1895545870065689
O	2.815559148788452	0.9172706604003906	0.5010190606117249
O	3.0255374908447266	2.373971462249756	0.47316479682922363
O	4.2935662269592285	2.772061824798584	0.16619481146335602
O	5.396318435668945	1.8976165056228638	-0.14090010523796082
O	5.122664928436279	0.4769511818885803	-0.10936778783798218
O	4.02656364440918	-1.4464789628982544	0.14350958168506622
O	2.9202334880828857	-2.428723096847534	-0.3869900703430176
O	2.400590181350708	-2.7964019775390625	1.0867440700531006
O	1.0131361484527588	-3.529884099960327	1.0885655879974365
O	0.08467540144920349	-2.1825406551361084	0.6795594096183777
O	-1.1502324342727661	-2.962212324142456	-0.06847409158945084
O	-2.289134979248047	-1.9160330295562744	0.11995531618595123
O	-2.875521421432495	-1.1121686697006226	-0.7134694457054138
O	-3.926300287246704	-0.3599669337272644	0.3888814449310303
O	-3.9758999347686768	1.0485986471176147	-0.5467117428779602
O	-3.738538980484009	2.0433366298675537	0.5139234066009521
O	-2.696660041809082	2.504227876663208	0.661651611328125
O	-1.3452630043029785	2.6411290168762207	0.29471272230148315
O	-0.6043998003005981	3.6346004009246826	-0.00717134540900588
O	0.8725942373275757	3.6604421138763428	-0.3873167335987091
O	1.9718924760818481	3.402398109436035	0.4851292371749878
O	1.5892595052719116	0.5305332541465759	0.8488173484802246
O	6.584857940673828	2.3228843212127686	-0.4293525516986847
O	6.2248077392578125	-0.4280531704425812	-0.4569890797138214
O	6.770350933074951	-0.2569412887096405	-1.8347853422164917
O	1.7954450845718384	-1.374962329864502	-0.7793534994125366
O	1.04681396484375	-4.345707416534424	-0.09280385076999664
O	1.1851129531860352	-4.03214168548584	-1.258564829826355
O	-0.44631850719451904	-2.0282859802246094	2.0648341178894043
O	-1.6925841569900513	-3.876995801925659	1.197882056236267
O	-2.981673002243042	-0.7246208190917969	-2.070827007293701
O	-5.104175567626953	-1.119052529335022	-0.27263882756233215
O	-5.984713077545166	-1.8034499883651733	0.4914408326148987
O	-5.715909481048584	-1.8300431966781616	1.6956218481063843
O	-7.158158302307129	-2.492493152618408	0.06664961576461792
O	-5.478419780731201	1.302125096321106	-0.553666889667511
O	-5.703762054443359	2.457458257675171	-1.293405294418335
O	-1.125230073928833	5.124885082244873	-0.09322559833526611
O	0.9425454139709473	3.945065975189209	-1.6617975234985352
