13

O	-2.6293680667877197	-2.2707910537719727	-0.06881055235862732
O	-1.958967685699463	-1.0368740558624268	0.02680695615708828
O	-2.611232042312622	0.09187167882919312	0.4491974711418152
O	-1.9200563430786133	1.2734228372573853	0.5272899270057678
O	-0.5977677702903748	1.3737461566925049	0.19981592893600464
O	0.3141220808029175	2.3553099632263184	0.1766485720872879
O	1.4935370683670044	1.8931106328964233	-0.2379845380783081
O	1.355980634689331	0.5651273131370544	-0.4955449104309082
O	0.04983456805348396	0.22875571250915527	-0.2245614379644394
O	-0.6351740956306458	-0.9659490585327148	-0.3073016107082367
O	2.415623664855957	-0.3408111333847046	-0.9737284779548645
O	2.8877241611480713	-1.178257703781128	0.173920676112175
O	1.835744023323059	-1.9886611700057983	0.754252016544342
