26

O	45.72	34.896	32.582
O	45.743	33.718	32.195
O	46.913	33.092	31.988
O	48.154	33.829	32.175
O	49.28	33.155	31.426
O	49.278	33.672	29.993
O	50.291	34.205	31.004
O	44.442	32.944	32.048
O	44.417	31.567	31.772
O	43.207	30.876	31.683
O	43.234	33.604	32.262
O	42.036	32.915	32.184
O	42.0	31.566	31.869
O	40.756	30.935	31.833
O	39.759	31.138	30.878
O	39.951	32.067	29.718
O	38.543	30.458	30.987
O	38.301	29.592	32.046
O	40.493	30.069	32.894
O	39.291	29.386	33.007
O	39.115	28.532	34.101
O	40.038	28.315	35.072
O	39.492	27.405	35.982
O	38.099	27.84	34.374
O	38.292	27.183	35.437
O	37.147	26.311	35.88
