26

O	43.758126242320714	29.442875364947398	34.020353537924066
O	43.8722496490638	30.41803922354218	33.47588793808622
O	45.10209508892935	30.640315346397756	32.70203808040698
O	46.45042460279764	31.052057607186345	32.890870888883164
O	47.10023636984319	32.062012133753605	31.920204082662323
O	48.489806719508614	32.3757288317567	32.11647716888497
O	48.29903817381708	31.220713970458537	31.34604126915905
O	42.61870479577064	30.520319951588913	32.942497704716295
O	41.63696186458649	31.24394649162699	33.55427053450069
O	41.59841927074863	32.520186703047436	32.85644461692368
O	42.52496039798297	30.233396585247114	31.582181803788984
O	42.22290187256443	31.349785384643344	30.795953396902945
O	41.52057682630337	32.190575669606424	31.586318775197736
O	40.14386227354894	31.67218906843419	31.719837199927465
O	39.348435163332454	31.54961509179022	30.683247644934617
O	39.82194179091035	32.132855449565746	29.38469518489698
O	38.375450560350075	30.637232319666552	30.92301540590386
O	38.554553375716814	29.73892767406589	32.0006150737358
O	40.07391456265041	30.805923519874323	32.81464714832529
O	39.78344302236013	29.579338527394448	32.32525091898051
O	40.40991518071966	28.321953648775892	32.41513492669179
O	40.67065380686808	28.543523366563218	33.66506743328683
O	40.96098376091434	27.24575723251142	34.12333452574945
O	41.33952527321025	27.513315146975724	32.21604096536045
O	41.94373051671693	26.935525918384386	33.20982364337404
O	43.421252482940794	27.251828396356657	32.69463154591523
