25

O	15.065	55.496	39.851
O	14.805	56.445	40.843
O	13.936	56.149	41.887
O	13.324	54.906	41.949
O	13.584	53.956	40.962
O	14.448	54.258	39.915
O	14.55	53.387	38.87
O	15.613	52.542	38.892
O	15.999	51.969	37.682
O	16.233	52.144	40.07
O	17.226	51.173	40.03
O	17.602	50.594	38.82
O	16.983	50.995	37.641
O	17.331	50.343	36.298
O	18.445	51.101	35.572
O	19.7	51.116	36.444
O	20.921	51.682	35.713
O	21.318	50.687	34.219
O	22.821	51.064	33.784
O	21.342	49.151	34.706
O	20.35	50.909	33.119
O	22.351	51.706	36.853
O	23.526	52.092	36.133
O	22.558	50.341	37.435
O	22.082	52.671	37.974
