28

O	6.645226955413818	-1.1997900009155273	0.058437056839466095
O	7.789254188537598	-0.8047477602958679	-0.7944398522377014
O	7.507148265838623	-0.23241695761680603	-2.119544744491577
O	6.741730213165283	1.0326793193817139	-2.0915143489837646
O	5.420554161071777	0.8995347619056702	-1.4563127756118774
O	5.201162338256836	1.1770824193954468	-0.11812154948711395
O	3.9522178173065186	1.0445271730422974	0.44751185178756714
O	4.302157878875732	0.47981634736061096	-2.1896369457244873
O	3.055781602859497	0.3493198752403259	-1.6180551052093506
O	2.857943058013916	0.6306483149528503	-0.28305429220199585
O	1.532670497894287	0.49625468254089355	0.34014326333999634
O	1.3886868953704834	0.1351407766342163	1.6585661172866821
O	0.16375581920146942	0.00673934118822217	2.264920473098755
O	0.37525051832199097	0.735072135925293	-0.38469767570495605
O	-0.8442444801330566	0.6023493409156799	0.23650190234184265
O	-1.01620614528656	0.24652892351150513	1.5390498638153076
O	-2.3059139251708984	0.09477996081113815	2.256255865097046
O	-2.8186516761779785	-1.2960556745529175	2.1623220443725586
O	-3.16634202003479	-1.7091805934906006	0.7956759333610535
O	-4.250021457672119	-1.1131709814071655	0.05978655070066452
O	-4.346974849700928	0.5878824591636658	-0.3383493423461914
O	-3.997314691543579	1.6736904382705688	0.8840117454528809
O	-5.966673851013184	0.9240310192108154	-0.8384318351745605
O	-3.4949193000793457	0.9401608109474182	-1.549857258796692
O	-5.828456878662109	-1.873848795890808	0.19640131294727325
O	-5.685031414031982	-3.3158130645751953	-0.24388042092323303
O	-6.814310550689697	-1.1507313251495361	-0.6509876251220703
O	-6.398479461669922	-1.9062458276748657	1.7772995233535767
