29

O	18.534	-13.495	21.702
O	18.402	-12.188	21.106
O	17.055	-12.099	20.411
O	16.607	-13.059	19.798
O	16.44	-10.894	20.488
O	15.161	-10.826	19.749
O	14.056	-10.814	20.821
O	13.633	-12.011	21.385
O	12.636	-12.028	22.357
O	12.038	-10.838	22.783
O	10.885	-10.829	23.903
O	10.595	-9.697	24.528
O	10.235	-11.934	24.195
O	12.472	-9.648	22.21
O	13.472	-9.623	21.235
O	19.493	-12.258	19.996
O	20.554	-13.151	20.684
O	19.715	-14.279	21.34
O	17.642	-13.9	22.652
O	17.707	-15.263	23.293
O	16.407	-15.969	23.217
O	18.2	-15.178	24.766
O	16.747	-13.138	23.007
O	19.633	-14.678	24.832
O	20.702	-15.489	24.44
O	22.008	-15.006	24.509
O	22.27	-13.718	24.967
O	21.197	-12.907	25.362
O	19.899	-13.391	25.291
