24

O	-4.756890773773193	-0.46412888169288635	0.755966067314148
O	-5.8838090896606445	-0.8986188173294067	1.3772927522659302
O	-7.129249095916748	-0.4943688213825226	0.8960554599761963
O	-7.144167423248291	0.33167821168899536	-0.1934482455253601
O	-6.015409469604492	0.7813518643379211	-0.8356490135192871
O	-4.788991451263428	0.36048319935798645	-0.3313277065753937
O	-3.62174391746521	0.7783699035644531	-0.9306629300117493
O	-2.39088773727417	0.3601236939430237	-0.4201134741306305
O	-1.2087738513946533	0.79948890209198	-0.9857743382453918
O	-2.363088846206665	-0.5066759586334229	0.6673385500907898
O	-1.1253405809402466	-0.8978662490844727	1.1420871019363403
O	0.035133033990859985	-0.4428483545780182	0.5586877465248108
O	0.05012277141213417	0.40185225009918213	-0.5000410079956055
O	1.2849384546279907	0.9008789658546448	-1.1446446180343628
O	1.731688141822815	-0.08775210380554199	-2.177403211593628
O	2.183688163757324	-1.3615461587905884	-1.5463571548461914
O	3.3561131954193115	-1.3538343906402588	-0.7839919328689575
O	3.7476582527160645	-0.65123051404953	0.3299941420555115
O	2.984745979309082	0.18620187044143677	0.8631241917610168
O	5.127264976501465	-0.8654999732971191	0.9603502750396729
O	6.2122602462768555	0.5007172226905823	0.39540258049964905
O	7.808574676513672	-0.05123935639858246	0.3962901532649994
O	5.827412128448486	0.9920271635055542	-1.1691120862960815
O	6.078752040863037	1.682436227798462	1.3531922101974487
