24

O	13.025	57.93	36.99
O	11.972	58.631	36.412
O	11.546	59.837	36.955
O	12.169	60.347	38.091
O	13.217	59.644	38.668
O	13.654	58.44	38.12
O	14.773	57.865	38.64
O	15.187	56.708	38.048
O	16.044	56.759	36.954
O	14.853	55.48	38.605
O	15.385	54.31	38.068
O	16.245	54.365	36.977
O	16.58	55.593	36.419
O	17.564	55.672	35.249
O	18.99	56.018	35.693
O	19.61	54.921	36.562
O	19.385	53.628	35.897
O	19.39	52.472	36.552
O	19.562	52.368	37.768
O	19.089	51.251	35.682
O	20.554	50.272	35.274
O	21.278	51.053	34.065
O	21.488	50.302	36.584
O	20.123	48.907	34.885
