24

O	13.703369894128585	57.73109588218254	36.311626847558045
O	12.536195773459237	57.809922887186026	36.991695664931584
O	11.92241462160418	59.017116540745505	36.90569449066471
O	12.191480467211845	59.85735595210483	35.874248125545506
O	13.57922081869226	60.06281499588087	35.92972894136521
O	14.242937432288523	58.96277706761376	35.90760506956168
O	15.57734452691904	59.186129577618416	35.79596959900217
O	16.249284425525516	57.9946064544481	36.01197799345459
O	15.756079781627747	56.96524620695406	36.81831709905996
O	16.234180247406023	57.52992015269508	34.742124943405194
O	16.27456960997804	56.26791364239602	34.28357280334324
O	16.203833173691674	55.347623873632585	35.24235459339938
O	15.8142560344779	55.64434889731298	36.487019106500945
O	16.757651174507824	54.97881487142411	37.39175273123326
O	18.127889070777304	54.74501741027365	36.88183056831157
O	18.816569776474214	53.49952628582222	37.306266699029976
O	18.230499206585513	52.436355924100866	36.55577979027409
O	16.80776015498349	52.22341671973099	36.557403096676325
O	16.077408982480605	52.51871849840687	37.55427665213662
O	16.55357523402238	50.782571447822605	36.391760873839445
O	17.44189972639819	50.19086730450613	37.88754231394224
O	16.87899119880987	51.087916647096705	39.0792770369733
O	19.055818116013214	50.85627173781399	37.810407450554955
O	17.8103859224723	48.92352126318205	37.44346464287601
