21

O	54.885	12.329	53.337
O	57.711	21.005	53.258
O	57.963	20.118	54.306
O	57.198	20.467	52.08
O	57.693	18.758	54.155
O	56.911	19.106	51.957
O	56.304	16.32	51.722
O	57.127	15.937	53.896
O	56.025	14.965	51.57
O	56.835	14.577	53.763
O	58.267	11.677	51.854
O	56.71	10.216	52.966
O	57.706	11.078	50.568
O	55.958	9.854	51.687
O	55.575	12.165	51.045
O	57.149	18.21	52.994
O	56.87	16.853	52.877
O	56.299	14.052	52.585
O	57.138	11.677	52.878
O	56.247	10.896	50.686
O	55.984	12.584	52.456
