67

O	12.123705863952637	0.3245081901550293	-3.9472901821136475
O	12.656222343444824	-0.2125466912984848	-2.84167742729187
O	11.97402572631836	-1.0135509967803955	-2.0027434825897217
O	10.673643112182617	-1.307765007019043	-2.2722208499908447
O	10.094050407409668	-0.7598931789398193	-3.421750068664551
O	10.85361385345459	0.044338252395391464	-4.221541881561279
O	10.29990005493164	0.6299242973327637	-5.408566951751709
O	8.806854248046875	-1.195650339126587	-3.4663045406341553
O	8.629655838012695	-1.9734669923782349	-2.383450984954834
O	9.723925590515137	-2.027306079864502	-1.701709508895874
O	8.154813766479492	1.101717233657837	0.8146394491195679
O	11.195096969604492	0.0032317447476089	1.368605613708496
O	10.959623336791992	-2.378588914871216	1.6922430992126465
O	8.823494911193848	-2.2860114574432373	0.388794869184494
O	8.059172630310059	-0.1340879201889038	0.6412220001220703
O	10.415997505187988	-0.5320563912391663	0.19419150054454803
O	11.222987174987793	-2.0239813327789307	0.278211772441864
O	9.16135025024414	-1.102452278137207	1.1456513404846191
O	9.905604362487793	-2.818147897720337	-0.4182456433773041
O	1.9796967506408691	0.4490055739879608	1.4312089681625366
O	2.614044427871704	1.0304044485092163	2.338115692138672
O	2.7437806129455566	-0.5457596182823181	0.6460357904434204
O	4.095954418182373	-0.8340555429458618	1.2478276491165161
O	4.805339813232422	-1.8223313093185425	0.35356995463371277
O	4.972947597503662	-1.0888344049453735	-1.004770278930664
O	5.813699722290039	0.14274467527866364	-0.5351901650428772
O	6.931530475616455	-0.5578297972679138	-0.0019903494976460934
O	0.6178010106086731	0.728947639465332	1.1749833822250366
O	0.08621491491794586	1.8269654512405396	2.144131898880005
O	-0.887519121170044	2.495870590209961	1.1086329221725464
O	-1.5364906787872314	1.713888168334961	0.41865983605384827
O	-1.059043049812317	0.8644797205924988	2.7929816246032715
O	-0.4061392843723297	-0.30433931946754456	3.4229111671447754
O	0.5268645882606506	0.0804552361369133	4.558816909790039
O	-0.3728702962398529	0.7963448762893677	5.574803829193115
O	0.3643152415752411	1.2275665998458862	6.7254557609558105
O	-5.612895965576172	1.8392177820205688	1.5465457439422607
O	-5.239163398742676	2.0672051906585693	0.34740254282951355
O	-5.44982385635376	2.8964598178863525	2.536569833755493
O	-4.962090015411377	4.183032989501953	2.290497064590454
O	-3.650069236755371	4.521169185638428	1.8146940469741821
O	-3.2943015098571777	3.988217830657959	0.49066057801246643
O	-1.9092937707901	4.419985294342041	0.04060349613428116
O	-0.9711876511573792	3.8937485218048096	1.0177887678146362
O	-6.151025295257568	0.589868426322937	1.795701026916504
O	-6.356456756591797	-0.5285726189613342	0.8194892406463623
O	-5.92867374420166	0.2747630476951599	-0.5238439440727234
O	-6.091091632843018	-0.6938331723213196	-1.660374641418457
O	-5.26458215713501	-1.9357213973999023	-1.5612035989761353
O	-5.575691223144531	-2.726491689682007	-2.7639310359954834
O	-4.949435234069824	-3.970705270767212	-2.9666993618011475
O	-4.122070789337158	-4.395064353942871	-2.105208396911621
O	-5.239219665527344	-4.7220611572265625	-4.123302459716797
O	-7.9236249923706055	-0.3743915557861328	0.6533485054969788
O	-8.52455997467041	0.5530345439910889	1.1949912309646606
O	-8.647109031677246	-1.2694438695907593	-0.09552913159132004
O	-10.153773307800293	-1.176264762878418	-0.2955087721347809
O	-10.296219825744629	0.43906787037849426	-0.41914162039756775
O	-9.433605194091797	0.7992479801177979	-1.6194707155227661
O	-9.991923332214355	0.023418784141540527	-2.7909412384033203
O	-11.368398666381836	0.36624622344970703	-3.047200918197632
O	-11.672577857971191	1.7090328931808472	-3.371265411376953
O	-10.700542449951172	2.545125722885132	-3.4167914390563965
O	-12.99118709564209	2.1301767826080322	-3.6354053020477295
O	-10.691771507263184	-1.296589732170105	1.1540745496749878
O	-9.840779304504395	-1.503077745437622	2.015789747238159
O	-12.020721435546875	-1.1885392665863037	1.513958215713501
