67

O	10.044360697519926	7.860908213077158	3.9572174997689924
O	10.005042033094107	9.147775991598522	4.4075955582074045
O	10.989122916960058	9.378341507001174	5.271464716138215
O	12.078263684953217	8.579526642861682	5.243948226874999
O	12.373304099132515	7.748834991589812	4.168403213643989
O	11.212124205237243	7.482041320180942	3.4528181632504378
O	11.526710074111072	6.892749871925754	2.223405592420084
O	13.522033708217577	8.355528262158787	3.726264339131953
O	14.095414067864056	8.745495380964082	4.792182910393421
O	13.252115791991393	8.733642468016704	5.7766644214496905
O	15.253513191933635	6.652904146608708	9.540138057551989
O	13.860120879671602	9.945620810675956	9.127894075182468
O	11.495966797801135	10.111765759059379	7.741218256064865
O	14.515179555354992	8.709288345805103	7.414098209910122
O	14.291244603111027	6.667820002596018	8.704227247171655
O	13.100644560406518	8.729245499059195	9.020230480482674
O	12.29933763500264	9.082654815470992	7.786484469135468
O	13.79922220780552	7.846397812511473	8.07141441185566
O	13.530429628327832	9.481334276959917	6.908132806678987
O	18.613472579009365	6.470497791084071	5.651070148761797
O	19.67775959094468	7.080958442991303	5.3093427921404075
O	18.464156087009318	5.396546181211704	6.721140217386747
O	17.193482599888085	5.336477213461979	7.430910477430409
O	16.287287424696085	4.592860944454313	8.073407314737947
O	14.910229191703477	4.241864064213861	8.025329779995536
O	13.941041853106166	4.4614406841006335	9.134118422839839
O	13.30709205585169	5.740358666339564	9.204405336017249
O	17.728875281106095	7.053140635620834	4.773218374671392
O	16.915452046211744	8.174130144587789	5.253576950153777
O	17.780022952896264	8.901525549548339	6.162122842456591
O	18.7877375404287	9.462452267319213	5.740736769998684
O	16.02188374430285	7.33855401989454	6.105544390149765
O	15.183952080916768	6.3308141772018285	5.460197553505297
O	15.834015635650188	6.243376499124355	4.141349760960348
O	15.896910665821173	6.66103976982934	2.8231471702162594
O	15.118253875761063	7.2136583645747105	1.802773266530684
O	17.38759305348737	12.282752608030457	5.146299096262847
O	17.35444840348765	13.412704947130209	4.636961692277031
O	17.37319418059094	12.132165205235065	6.6384965035246
O	16.46564114153618	11.138390994150111	7.261362341924953
O	17.268257429678187	10.160019831157033	7.883235944972694
O	16.904237276789274	8.984775651442027	8.688145353852835
O	18.1252075833561	8.190417950490053	8.486415656034154
O	18.392512535170592	8.124997586382902	7.166910865223944
O	17.922315502214918	11.383435650016118	4.199221453940254
O	17.050583497458103	10.73685887265381	3.3765904801948743
O	17.232118800025617	9.469038291405294	2.735478127785754
O	18.68636301460986	9.164527051980723	2.6380882039538776
O	18.804310379159983	8.519376451853315	1.2863773572515882
O	17.68344254326039	8.216976331434289	0.5333269181404354
O	16.81868321048259	9.020795748417587	-0.21330961097921275
O	15.762590232917681	8.498863530565488	-0.9914087623489323
O	16.699782267993797	10.226833614033104	0.17183305054897957
O	15.677020406346239	10.836973271920936	3.8420830617614996
O	15.068409870500506	10.765189870236746	2.791831248310219
O	15.23835550635424	11.69631396485899	4.817148305331374
O	14.244172358010452	12.743337413755462	4.7487047897890555
O	13.014270842217066	11.825412794547002	4.758867822571381
O	12.847317571442204	11.308740033961797	3.504076274581424
O	11.907518542510777	10.989103380529642	2.5212297767719853
O	11.904438347273313	9.948144387944584	1.5999609130060097
O	12.932424352650152	9.479933331982384	0.7523048970378277
O	12.666209319823784	8.467464408747386	-0.2261258746967485
O	13.563457422059814	10.483047908477587	0.20076887197686943
O	14.314571021536349	13.583154392620695	3.545320202221129
O	14.86403853064158	14.69362722877758	3.4230159537439864
O	13.791734281121196	13.05064189420587	2.3171245397416396
