16

O	-0.9296325445175171	-0.786981463432312	-0.09655772894620895
O	-0.14839720726013184	0.3177706003189087	0.019709864631295204
O	-0.7394110560417175	1.5527896881103516	-0.136882945895195
O	-2.1010468006134033	1.6573704481124878	-0.40681731700897217
O	-2.8532142639160156	0.5242499709129333	-0.516454815864563
O	-2.274695634841919	-0.6986718773841858	-0.36270686984062195
O	-3.2560312747955322	-1.6696723699569702	-0.5225653052330017
O	-4.532154560089111	-1.0491842031478882	-0.6639993786811829
O	-4.216855525970459	0.3141876459121704	-0.7763530015945435
O	1.2827398777008057	0.1919538974761963	0.3039553761482239
O	2.21956467628479	1.1938830614089966	0.4541003108024597
O	3.459792375564575	0.6241341233253479	0.7156997323036194
O	3.2398910522460938	-0.7005919218063354	0.7165628671646118
O	1.9496997594833374	-0.9559168815612793	0.4725235104560852
O	4.710174083709717	1.2633178234100342	0.9392257928848267
O	4.189576625823975	-1.778638482093811	0.9381433725357056
