68

O	-3.000853293715385	2.135575991459615	-1.111414473557692
O	-2.513466553715385	2.0987690854596153	0.20978997944230798
O	-1.1702149237153852	2.5048444364596154	-0.02145411075769199
O	-0.930617957715385	3.610295480459615	-0.847477821557692
O	-2.094507931715385	4.232545180459615	-1.333864603557692
O	-2.789213533715385	3.216291210459615	-2.033695663557692
O	-3.699912713715385	3.8800147804596152	-2.907967443557692
O	-3.932919163715385	5.186538420459615	-2.354959493557692
O	-2.601626923715385	5.385160140459615	-1.8408288735576919
O	-3.398479833715385	3.020747090459615	1.007971524442308
O	-3.0056379137153852	4.020149130459615	1.822427766442308
O	-3.8150016137153853	5.0308574504596155	1.440924106442308
O	-5.021472063715385	4.699572680459616	1.007503097442308
O	-4.711630313715386	3.406585300459615	0.788981040442308
O	-3.2264191437153853	6.2971262304596145	1.019517271442308
O	-6.203018203715384	5.306665420459615	1.532841186442308
O	-6.091560843715385	-8.515625719540385	-5.332293303557692
O	-6.058974173715384	-10.808839419540384	-2.307016893557692
O	-3.054684023715385	-8.873915319540384	-0.984977173557692
O	-0.812951186715385	-11.018956519540385	1.231096126442308
O	2.9103291962846147	-11.253685419540384	2.126891096442308
O	9.197065116284616	-6.106464509540384	-3.823630213557692
O	-1.1937261157153851	-5.417830289540385	8.319550096442308
O	-5.543385933715385	-8.045798919540385	6.212732306442308
O	-3.950202783715385	-5.663174809540385	3.646435236442308
O	-5.473500443715386	-2.542348369540385	5.221981846442308
O	-8.980783463715385	-3.8800902595403843	5.933055996442308
O	-11.641314483715385	-2.002367299540385	3.909126616442308
O	-10.975421273715385	-0.9949488595403846	-1.5897202335576919
O	-8.283364373715385	-2.4291560295403847	0.718659397442308
O	-6.319006163715384	-5.437851659540385	-0.703654361557692
O	-3.3061666137153853	-3.1090964995403847	-0.6341718245576919
O	-5.241377783715385	-0.5441370595403847	-2.7398896535576918
O	-6.257936493715386	-3.186454039540385	-5.110515203557692
O	-2.764089093715385	-4.569109239540385	-5.712289063557692
O	-1.300282198515385	-1.2796582595403847	-6.516874333557692
O	-4.296248393715385	-0.2636877295403848	-8.796925283557693
O	-3.9752777037153852	-3.5707837395403845	-10.727348153557692
O	-0.2310562837153851	0.3973426604596153	-12.001476053557692
O	4.447811646284615	12.678754380459615	-0.596869400557692
O	3.091085236284615	9.024036110459615	-1.051659293557692
O	3.1587214962846146	7.980117040459616	2.602360116442308
O	6.7521195262846145	9.156932040459616	3.428467026442308
O	6.3496576962846145	-5.564877809540384	8.353958516442308
O	6.877525956284616	-2.4959494195403846	6.205051516442308
O	3.5631552262846147	-0.8051352895403849	7.193387526442308
O	1.611698836284615	-3.9250670995403847	6.546971236442308
O	2.881033226284615	-3.9361945595403847	2.955827336442308
O	2.9445530762846146	-0.31063541954038465	1.948104606442308
O	0.8934155562846149	2.741510490459615	3.317930506442308
O	3.278421836284615	4.274166340459615	5.607496046442308
O	2.353568846284615	7.5721904304596155	7.287725616442308
O	5.6784328862846145	8.968268530459616	8.325295156442309
O	4.503370146284615	3.0359129704596155	15.441794746442309
O	0.45428110628461504	0.9937676034596152	12.793053746442308
O	-0.4540637737153851	4.685709040459615	12.790320046442307
O	3.0301217062846146	5.8405851304596155	11.866681046442308
O	9.110827316284615	-0.5166823295403846	-8.301796743557691
O	7.157965556284616	0.9698752634596153	-11.208739153557692
O	7.5231854262846145	4.431152010459615	-9.569699053557692
O	6.195332066284616	3.519191670459615	-6.138378123557692
O	3.182387776284615	1.7714191705596152	-7.620738553557692
O	2.399792366284615	4.709789060459615	-9.972050953557693
O	2.7709910162846145	7.283704130459615	-7.117902703557692
O	0.558924086284615	5.423105280459615	-4.780667313557692
O	-2.023695246715385	4.504521230459615	-7.472509973557692
O	-2.073932197715385	8.163904730459615	-8.361270053557693
O	-2.572772883715385	8.942566580459616	-4.810890443557692
