16

O	-0.652	11.65	-6.54
O	-0.849	10.47	-5.775
O	-1.591	10.501	-4.55
O	-2.162	11.671	-4.035
O	-1.985	12.83	-4.764
O	-1.237	12.816	-6.04
O	-1.235	14.109	-6.513
O	-2.068	14.924	-5.644
O	-2.396	14.119	-4.504
O	-0.284	9.162	-6.226
O	-0.068	8.043	-5.4
O	0.46	7.054	-6.23
O	0.562	7.495	-7.482
O	0.108	8.836	-7.507
O	0.821	5.785	-5.837
O	1.056	6.905	-8.764
