91

O	1.5814945126122808	0.6375165177894734	-2.414186360666666
O	2.4607993136122808	1.1396744937894734	-3.3544038206666658
O	3.746704623612281	0.6981883647894733	-3.242351030666666
O	4.019456763612281	0.08757969008947336	-2.047559020666666
O	1.7965328076122808	-0.09446379621052664	-1.300231030666666
O	3.1365687736122805	-0.26516074321052663	-1.0620261686666659
O	3.417946103612281	0.39115391578947334	0.18180838733333413
O	2.5483445436122807	-0.05170894521052666	1.190659529333334
O	1.484364491612281	-0.9292574422105268	0.8117174593333342
O	0.9252726306122808	-0.48169479421052663	-0.36746929166666586
O	0.03959519361228092	-1.3901392322105268	-3.950879750666666
O	0.3060517016122808	-2.3470176122105264	-2.996345090666666
O	-0.6504511963877191	-2.6188660822105265	-2.117976050666666
O	-1.8954112863877193	-2.1919290722105265	-2.389831240666666
O	-1.9458622563877193	-0.8781879822105266	-2.891502440666666
O	-0.7731212763877191	-0.3484659522105267	-3.454074100666666
O	0.9198784406122809	-1.0888778322105268	-4.929741210666665
O	2.2014582336122808	-1.5394626822105266	-4.953877360666666
O	2.5491912136122807	-2.1761137522105267	-3.796743070666666
O	1.6148684336122807	-2.6889643622105264	-2.873611660666666
O	-0.4848134063877192	-3.6821157822105266	-1.193188113666666
O	-0.9729201563877192	-3.1695038722105267	0.12355851333333409
O	-2.1364017763877188	-2.3696090122105264	-0.08151996166666589
O	-2.9093485463877187	-1.3981017222105265	0.5386660433333341
O	-3.1302924863877193	-0.03195776021052665	-0.0077556876666659
O	-3.462034146387719	0.6970613517894734	1.245847059333334
O	-2.453430856387719	0.33809262178947336	2.280319249333334
O	-1.3050071563877192	1.2436178477894733	1.874007879333334
O	-0.9851039963877193	0.7477671417894733	0.5340258143333342
O	-0.2958075263877191	0.2735416497894734	-0.3465819996666659
O	0.5646281646122808	-1.1607088922105269	1.998471899333334
O	-3.0822896563877187	-3.1468565722105266	-2.478407120666666
O	4.767140493612281	0.16300836102947336	0.5060051463333342
O	-0.9233378463877193	0.6187553627894733	-4.401731710666666
O	-5.938664796387719	-3.1858698222105266	-11.629816330666666
O	-4.326504716387719	-6.766883552210527	-11.410741530666666
O	1.8825998066122809	0.9787972527894734	-10.154661980666665
O	0.6438733796122809	3.7233147777894735	-10.086817600666665
O	-1.7061542763877193	9.601382397789473	-9.811904800666666
O	-6.375996046387719	12.938456387789474	-2.926354630666666
O	-8.629811726387718	12.122863587789475	0.024750565333334112
O	-6.522934776387719	9.144882067789474	0.8510682493333342
O	-7.775099066387719	7.432291937789473	-2.371209810666666
O	-11.22813754638772	7.141337217789473	-0.7133541486666659
O	-9.77788334638772	4.465046837789473	1.589991929333334
O	-9.744562446387718	2.0691541777894735	-1.472090800666666
O	-13.366547646387719	2.1923842477894735	-1.676075990666666
O	-6.007203596387719	6.643739357789473	-13.357282030666665
O	4.143865653612281	7.910236207789473	-9.414657580666665
O	2.401475223612281	8.115754927789473	-6.000820370666665
O	2.548239393612281	5.396876497789473	-3.524349730666666
O	0.6944163366122809	5.393003997789473	-0.1128006976666659
O	-2.7568531463877193	5.920611497789473	-1.606773730666666
O	-1.7383789763877193	8.635893297789474	-4.1343678106666655
O	0.9247627026122809	10.596476787789474	-2.2227430906666656
O	7.072220013612281	6.845205687789473	-4.439894000666666
O	5.073856213612281	7.896459387789473	1.114903169333334
O	3.5011428136122804	8.656262567789474	8.538863879333334
O	1.6469184276122808	7.691979157789473	5.400148349333334
O	-2.0636753463877193	7.538370967789473	4.588925639333334
O	-2.823096206387719	11.218426987789474	5.256670859333335
O	-2.692333066387719	11.505691487789473	9.012324549333334
O	12.36991635361228	6.313193337789473	-5.9160698306666655
O	11.014382713612282	3.9072664377894735	-3.402304530666666
O	11.57474215361228	5.043343977789473	0.14056962233333412
O	10.56647820361228	4.106584017789474	3.788552259333334
O	14.168597353612281	0.9801988927894734	-4.023964890666666
O	11.146822253612282	-0.6729489262105266	1.149053399333334
O	5.6555128036122815	-3.923793602210526	6.2036612893333345
O	4.526023593612281	-5.270771772210527	11.417794469333334
O	0.9729508736122808	-5.966206252210527	10.217079169333335
O	-2.7202354063877188	-6.403955032210527	10.909916469333334
O	-3.245449636387719	-2.6354789422105265	11.445879769333335
O	7.708049643612281	-9.602371322210526	-0.1274972426666659
O	5.573284063612281	-11.820625012210526	-2.283482630666666
O	2.812444453612281	-11.700096912210526	0.3563460353333341
O	2.138144993612281	-12.117211512210526	3.992678329333334
O	0.5571315886122808	-10.075404212210525	6.657794539333334
O	-1.360803846387719	-11.797034312210526	9.421867759333335
O	-3.493235886387719	-11.905655512210526	12.513601169333334
O	-6.665378476387719	-9.310910342210526	11.218331069333335
O	-7.904843446387719	-9.376440532210527	-1.1066908706666658
O	-8.19745656638772	-7.432866302210527	2.151207399333334
O	-8.176359976387719	-8.525628652210527	5.7572597293333345
O	-4.726232306387719	-9.069268752210526	7.171949129333335
O	-2.9210230663877192	-9.600584122210526	3.855797839333334
O	9.61422879361228	-7.185214972210527	-4.9745319006666655
O	5.993513463612281	-6.158476762210527	-4.2811293506666654
O	4.084693813612281	-7.636542012210527	-6.269709650666665
O	0.8175177216122809	-11.233052912210526	-9.428239420666666
O	1.057050539712281	-12.752194312210525	-5.866649650666665
