34

O	9.085	-8.053	30.043
O	8.449	-9.084	30.694
O	7.722	-8.795	31.864
O	7.675	-7.444	32.409
O	9.063	-6.767	30.536
O	8.402	-6.435	31.742
O	8.369	-5.106	32.187
O	9.04	-4.107	31.505
O	9.742	-4.432	30.344
O	9.77	-5.755	29.852
O	20.219	-10.084	21.78
O	18.939	-9.671	22.257
O	17.778	-9.961	21.54
O	17.844	-10.558	20.25
O	19.101	-10.911	19.803
O	20.27	-10.649	20.521
O	21.349	-9.809	22.488
O	21.261	-9.175	23.702
O	20.037	-8.78	24.171
O	18.871	-9.014	23.518
O	16.395	-9.681	21.996
O	15.959	-8.214	21.859
O	15.17	-7.934	23.156
O	13.811	-8.514	22.992
O	12.985	-8.097	24.265
O	11.867	-7.042	23.894
O	10.728	-6.833	24.963
O	11.276	-6.736	26.472
O	10.035	-6.45	27.432
O	10.697	-6.038	28.669
O	10.482	-3.31	29.589
O	16.57	-10.965	19.413
O	7.646	-4.793	33.316
O	21.393	-11.045	19.905
