77

O	-2.327896021170732	5.329100747995121	1.4349762648780489
O	-2.9457148911707316	5.013569017995121	2.6388345148780488
O	-3.2184500211707316	3.7624141579951216	2.9943481448780487
O	-2.3702748911707316	2.8669133009951215	2.440577644878049
O	-2.1077198611707315	3.0664309079951217	1.176388684878049
O	-1.9872867011707318	1.9161856793951217	0.3992263448780491
O	-1.7067382481707316	0.8065844079951217	0.746728864878049
O	-1.8179481151707317	2.064392545995122	-0.992894961121951
O	-0.5160086381707316	1.7171360999951217	-1.211668745121951
O	0.3332946288292684	1.0224152089951217	-0.41447640912195094
O	-0.004722449170731724	2.3315314599951216	-2.2771447451219506
O	1.3369664288292684	2.7790951979951215	-1.984105945121951
O	1.2713719788292681	1.5987489039951217	-2.4290008151219507
O	0.7778350588292684	3.7176551379951217	-0.9076408499219509
O	0.09488645182926836	4.608697757995122	-1.7866585721219508
O	-0.09598878417073164	5.754833827995122	-1.129559464121951
O	1.2029744488292682	4.910170987995122	-2.657445365121951
O	2.0102157488292685	4.136236887995122	-3.0616253551219508
O	1.2007842488292684	6.210881847995122	-3.310098255121951
O	-0.04335592017073164	4.3456487579951215	-3.311607185121951
O	-0.6898351781707317	3.0604512879951216	-3.163979505121951
O	-1.6932430071707318	3.568570137995122	-2.562936065121951
O	-1.8018506521707316	4.957764447995122	-2.8627079751219506
O	-2.2484472911707316	3.2351921679951214	-1.4506367371219508
O	-2.7178895911707315	4.290375927995122	-0.6121969021219509
O	-2.8513869411707318	5.422262527995121	-1.075396116121951
O	-2.1235472711707315	4.260364437995122	0.6794702248780491
O	0.14014532082926834	1.5284625649951218	-3.2754704251219513
O	0.5264232288292683	1.9939460199951218	-4.531816345121951
O	1.7844778288292682	1.4052775479951216	-4.581052845121951
O	2.571604608829268	2.4127502269951218	-4.254627755121951
O	1.8465589488292684	0.2746544379951217	-3.6050050751219507
O	2.6176968788292685	-0.48367717200487825	-4.333594965121951
O	0.7126848388292684	-0.4480527820048781	-3.1263090451219506
O	-0.3788534391707317	0.3360683879951216	-3.1607468851219513
O	0.49490363882926824	-1.6698613220048781	-3.842705465121951
O	1.6117979488292682	5.308821927995122	7.453267864878049
O	1.9852539988292683	5.216943367995122	3.5210814648780486
O	3.7861890288292686	8.729332537995122	3.774350764878049
O	5.517523438829269	8.723867507995122	7.149061644878049
O	7.031919568829268	5.218424457995122	7.267275184878049
O	10.49637793882927	6.055583977995122	6.0333342348780485
O	12.255228538829268	6.128405147995122	9.463760624878049
O	5.0821548288292675	0.5804729479951216	9.226724324878049
O	4.101332928829269	0.4905691679951216	5.504994784878049
O	5.729152348829269	-1.8457571720048784	4.940346264878049
O	8.88011781882927	-2.0535128420048787	1.003615114878049
O	5.870573038829269	-1.2664719620048783	-1.063685383121951
O	4.8343535388292675	1.7761200631951217	0.28308368487804914
O	5.458949518829268	5.242145997995122	-0.3896060271219509
O	9.212735938829269	5.204144597995121	-0.4318020861219509
O	10.153299138829269	3.634031607995122	-3.525444575121951
O	13.91062833882927	3.5066327979951217	-2.593407525121951
O	-0.3863887641707317	-4.288362052004878	8.26992035487805
O	-0.5729298221707317	-4.825179292004878	4.447519594878049
O	-2.6445125111707317	-7.972850032004878	3.5632498148780485
O	-1.3869682891707318	-8.725033562004878	0.00830256787804906
O	0.4932088488292683	-12.077692862004879	0.17831287487804914
O	3.6346977388292685	-10.060641762004877	-0.6739558581219509
O	3.3498137288292686	-7.8489875320048785	2.363005464878049
O	2.5166174888292683	-10.796454462004878	4.733579024878049
O	-5.489722711170732	-3.3153165420048785	5.8537011148780485
O	-8.242311131170732	-5.1800649220048784	3.7880058448780485
O	-8.380575001170731	-2.203163772004878	1.3400947848780491
O	-6.281437321170731	-0.3204355620048782	-1.289147704121951
O	-6.0833720411707315	-3.3043757020048776	-3.3728857751219508
O	-7.083769791170731	-1.2567761920048783	-6.396717945121951
O	-7.203662571170732	2.4021545319951216	-6.841699315121951
O	-6.625622911170732	5.620173507995122	-8.716720135121951
O	-2.9726660411707315	5.026788667995122	-8.40265769512195
O	-3.496197391170732	3.539082377995122	-11.880117675121951
O	-6.295748981170732	3.082487217995122	-14.47000497512195
O	-7.154531871170732	-0.5528669420048782	-13.657357575121951
O	-10.528371781170732	-1.0166507420048785	-12.045594875121951
O	-10.267935951170731	-2.1970609020048784	-3.533825465121951
O	-13.420457261170732	0.8883606609951217	3.7818633048780486
O	-11.394743561170731	4.733111737995122	-4.663820115121951
