36

O	13.76700826189691	-8.881526380329223	23.00577008384263
O	12.466478802553441	-8.89646459028674	22.51696021270562
O	12.145439754977815	-9.467459499009031	21.36064640577496
O	12.979710827302592	-10.478623689277317	21.02970326729094
O	14.24804657784819	-10.230896260114026	21.221723293838362
O	15.113240383197578	-10.747385320663941	20.259315758447954
O	14.942956713337882	-11.674650716907502	19.523202469552878
O	16.4820595745055	-10.41948497699948	20.345675174650662
O	17.080016779305133	-11.578009389491369	20.75035254801591
O	16.605722791158403	-12.848087476930477	20.712727544085887
O	18.195669790628457	-11.352186567632339	21.442058224933845
O	18.254109539415964	-12.243935028613528	22.57681968062672
O	18.75170481922531	-12.720926885506113	21.518363655582565
O	16.99643906167864	-11.579665815587793	23.150676050399653
O	17.580402630424842	-10.310348007118757	23.435046860930452
O	16.810898055690284	-9.707799120767728	24.344243227744144
O	18.699407980160846	-10.780749474613074	24.211940832465004
O	19.369805522441723	-11.733483889037762	23.97353310868176
O	19.22474610135864	-9.884527617376529	25.231065738524695
O	19.02217589747761	-9.930105207953986	22.99860756136733
O	18.79885528395529	-10.168324304525095	21.589763543945356
O	17.905633661823185	-9.260978930702937	21.51803656052864
O	18.056748042354684	-8.32836463583206	22.585236012605407
O	16.71154547624285	-9.310154244603499	21.04018966404109
O	15.697858176320597	-8.587450003604737	21.737976762897603
O	16.018121856569717	-7.732334034434186	22.56244640087683
O	14.62859729558733	-9.425221626539937	22.15912676774798
O	19.253008257340756	-11.636383764947594	20.7610091781704
O	20.52799721143052	-11.341896143434608	21.242642594279534
O	20.96978554858827	-12.645030274776847	21.43839928081291
O	20.79943075921091	-12.800065523490272	22.737655384704162
O	20.138494298748686	-13.583049384149831	20.623594432987517
O	21.108299498921628	-14.41019673652919	20.34815134124364
O	19.41981877196632	-13.21733693616219	19.44593318929426
O	19.089581552829294	-11.915064764589431	19.49611642004965
O	20.138222392346144	-13.523043478799138	18.244305818561834
