20

O	0.008	11.307	12.593
O	-0.281	11.697	14.021
O	-0.463	12.88	14.294
O	-0.397	10.589	15.123
O	-0.891	11.175	16.457
O	-0.811	10.026	17.515
O	-1.491	8.674	17.068
O	-1.69	7.791	18.298
O	-2.883	7.886	19.053
O	-3.763	8.667	18.689
O	-3.017	7.079	20.212
O	-4.013	6.929	21.102
O	-5.304	7.676	21.05
O	-3.656	6.01	22.018
O	-2.416	5.55	21.721
O	-1.996	6.184	20.611
O	-0.792	6.1	19.881
O	0.336	5.165	20.271
O	-0.644	6.913	18.767
O	0.402	6.818	18.143
