25

O	17.648038895192084	-9.125302054561281	22.674638216099115
O	22.520593140559992	-12.91320682965803	20.93709212002364
O	21.795262295743697	-12.31301880999745	21.966263470633173
O	20.713209229896535	-12.010256118975676	20.195071691902527
O	21.70939113104921	-12.882894311314633	19.814657255588443
O	20.789232544026824	-11.556139736610515	21.48372036161858
O	16.83310916789607	-12.518299488646878	19.543963259812813
O	19.782249865216723	-11.502079972460905	19.370046412868376
O	17.228754922383434	-12.307326628146207	21.731552561866113
O	19.125093295425064	-10.45854663191004	19.872132575487356
O	19.170998117660524	-10.008693343563708	21.120356432600573
O	19.885480183079846	-10.660068336103208	22.047058006848907
O	18.442664437265485	-9.845684909741633	18.891414940149563
O	17.51201811258762	-9.01013419220184	19.269077214751576
O	18.177141728235462	-9.08318202148198	21.42646770375929
O	16.304843501293725	-9.297523072116938	22.968681910971913
O	15.771852151791025	-10.099477297043245	21.90032972190132
O	15.708362499105188	-9.078643494440017	20.860933551425322
O	17.148193317327166	-8.737309580076182	20.548884345309133
O	14.749046732037836	-9.601441156810889	20.005712940677338
O	14.71437731089836	-11.022632425678594	19.78996811440711
O	15.918151526548229	-11.674223889876014	20.19445924708088
O	16.55010038224764	-11.176179360946202	21.379409321927604
O	17.564317017639226	-13.07892172697805	20.56098352746789
O	18.664530339784466	-9.425258690933147	23.644753783024665
