17

O	14.061	-7.849	23.978
O	15.441	-7.902	24.052
O	16.102	-8.6	23.067
O	15.432	-9.249	22.012
O	14.068	-9.203	21.974
O	13.364	-8.479	22.942
O	17.395	-8.796	22.892
O	17.534	-9.503	21.778
O	16.369	-9.81	21.184
O	18.691	-9.994	21.287
O	18.763	-10.662	20.133
O	20.174	-11.19	20.032
O	20.91	-10.777	21.329
O	19.848	-10.036	22.056
O	13.397	-7.203	24.913
O	13.7413	-7.4368	26.0133
O	14.1801	-7.7192	27.5099
