70

O	0.07364700737735852	-0.9963609818867913	-0.6771910958377364
O	-0.5273207726226414	-0.5852862118867914	0.5608864151622637
O	-1.9613094156226414	-0.4195912798867914	0.5995103161622636
O	-2.633532052622641	0.06550100011320859	-0.5315483953377363
O	-1.7790128386226414	0.3575908491132086	-1.6074405338377362
O	-0.4305006316226414	-0.043684645886791384	-1.5653629338377364
O	-2.6343513626226414	-1.6470250318867912	0.7452502361622636
O	-3.821630492622641	-1.7226718318867915	0.03207320716226364
O	-3.8257882726226415	-0.5172188618867914	-0.4178591997377364
O	-4.398966902622641	-3.0670328518867915	-0.23616103483773637
O	-3.7625666526226413	-4.199500841886791	-0.29274798383773637
O	-4.261302952622641	-5.089475981886792	-1.2975435878377364
O	-5.422782002622641	-4.329100401886792	-1.8617924838377364
O	-5.653348912622642	-3.3309697718867914	-0.8168881718377363
O	0.21961549737735853	-2.3486378718867913	-1.0302142508377363
O	-0.6207874076226414	-3.3771340818867914	-1.2982601008377364
O	0.5168191673773586	-4.274058871886791	-2.3121134538377364
O	-2.1339666996226416	-12.383993341886793	5.517063856162263
O	-1.2649180286226414	-13.353812441886792	0.01634762916226362
O	2.5169926973773586	-13.128107241886791	-1.0053323978377364
O	5.206740807377359	-6.165753671886791	10.884310516162264
O	4.382816797377359	-4.366562041886791	7.656463366162263
O	1.4696299773773585	-5.028921811886791	5.351529506162263
O	1.5892572473773585	-8.806803601886791	5.367146356162263
O	2.9881511473773585	-9.460125321886792	8.915960696162264
O	0.6596093073773586	-7.261675671886791	11.049950616162263
O	-2.074876676622641	-9.853735141886792	11.899146316162264
O	4.834571867377359	-1.1290687518867915	11.514708216162264
O	1.3145982173773585	-2.2024892918867915	12.581976316162264
O	-0.8503511666226414	-1.7709982418867916	9.538115216162264
O	-3.104055782622641	-0.6542292918867914	11.085766016162264
O	-8.003860752622641	-1.4349695818867914	6.814838196162263
O	-4.859312132622641	-3.4562961618867916	6.468388796162263
O	-4.388667662622641	-6.809368971886792	4.622344536162263
O	-6.682781432622641	-8.708557521886792	6.990429546162264
O	-10.24431073262264	-7.786728141886791	6.208094786162263
O	1.8927999373773585	4.713427948113209	10.382976116162265
O	-0.9338801316226414	5.206639668113208	7.906091756162263
O	-1.7949094036226414	8.845816798113209	7.184917746162263
O	-5.331916092622642	8.632057168113208	5.850789316162263
O	4.516154947377359	8.828342598113208	8.148247676162264
O	3.5165405273773587	6.441996088113209	5.2807202461622635
O	2.817680087377359	9.311700708113207	2.7803046061622636
O	2.4372135073773586	6.955342278113209	-0.20389810783773638
O	0.036991207377358615	4.351576968113209	-1.4174952318377363
O	-2.8482666626226414	6.731668618113209	-1.4354116458377364
O	-4.090046942622641	5.318869898113209	-4.819816483837736
O	-3.1898009726226415	2.1804069581132084	-6.611927573837737
O	-4.054591832622641	-0.8502244718867913	-8.720954413837736
O	-6.178782712622642	-2.508491621886791	-6.005300793837737
O	-8.946918052622642	-0.6982185518867914	-7.699193643837737
O	-9.529275892622643	4.679521188113209	-9.807311913837736
O	-6.479939232622641	6.800425518113209	-10.863208683837735
O	-0.2279194426226414	7.882869748113209	-4.7710660238377365
O	7.737323837377359	9.187609348113208	3.237707366162264
O	8.982456657377359	9.186379418113209	-0.3511221754377364
O	8.253875057377357	6.445836808113208	-2.805279053837736
O	10.991595857377359	4.601734788113209	-4.760891963837737
O	8.246192797377358	2.9745267881132085	-6.863036503837737
O	5.215443097377358	3.7363407281132086	-8.933805973837735
O	1.7672720273773588	2.3123723481132084	-8.863202663837736
O	-0.16985768262264145	1.9729742081132087	-12.080238183837736
O	-6.839914172622642	-3.2389582318867913	-14.463527183837735
O	-3.3563344526226415	-3.1117314718867912	-12.997728083837735
O	3.804166817377358	-7.704819481886791	-8.703124033837735
O	1.0773137173773586	-6.373960911886791	-10.937595983837737
O	0.31066132737735863	-2.6629913918867913	-10.386342453837736
O	3.7163436273773582	-1.7820723218867913	-8.851881473837736
O	1.9845754973773584	7.548229018113209	-10.343758163837736
O	5.312486147377359	7.8469990981132085	-8.551884503837735
