38

O	15.774	50.83	64.617
O	16.163	51.372	63.467
O	15.989	50.636	62.193
O	15.207	49.554	62.139
O	14.978	48.711	63.399
O	14.881	49.645	64.616
O	14.469	48.924	61.222
O	13.455	48.158	61.736
O	13.681	47.97	63.116
O	12.341	47.592	61.133
O	11.442	46.846	61.893
O	11.663	46.665	63.253
O	12.774	47.223	63.864
O	14.155	49.408	65.578
O	12.98	47.032	65.213
O	10.334	46.28	61.297
O	12.104	47.779	59.694
O	10.836	47.92	59.271
O	16.141	47.74	63.59
O	13.045	47.79	58.909
O	16.249	51.383	65.901
O	16.74	52.598	63.456
O	17.751	51.509	66.172
O	15.443	51.739	66.748
O	9.182	45.733	61.897
O	10.555	48.091	57.854
O	9.119	48.503	57.671
O	8.789	49.826	57.335
O	7.449	50.198	57.172
O	6.431	49.254	57.342
O	6.749	47.953	57.672
O	8.092	47.569	57.838
O	5.731	47.034	57.837
O	6.034	45.708	58.171
O	7.367	45.319	58.337
O	8.397	46.255	58.169
O	9.875	50.847	57.15
O	10.399	50.858	55.713
