91

O	-4.657840191215094	4.952606871786793	0.6898876282264153
O	-3.3560277812150936	5.320717511786793	0.8129693382264152
O	-2.2699927992150934	4.494077441786793	0.33055876922641525
O	-1.9313985422150932	3.1850067017867922	0.43854073822641526
O	-3.440991891215093	2.8848209117867927	0.7293449082264152
O	-4.523819491215093	3.5462293617867924	0.17566245422641524
O	-1.3557515152150934	2.1770982017867926	1.1867694282264152
O	-2.1050387382150935	1.3435573637867926	0.5144436282264153
O	-3.2210255312150933	1.7482110147867926	-0.12635633877358476
O	-1.5322793312150933	0.3981589867867925	0.01813273522641523
O	-1.9821583792150932	-0.47522414821320746	-0.8844421947735848
O	-2.8111642612150933	0.2732895047867925	-1.7900675517735847
O	-3.261556341215093	1.5775904327867925	-1.5073339087735849
O	-5.102741381215093	3.6115669117867926	-0.9535268607735847
O	-3.5730008612150934	2.4749222117867924	-2.4975208717735846
O	-1.9489463122150932	-1.8210258382132074	-0.7807544687735848
O	-0.2832856912150934	-0.15707919821320748	0.6094530182264153
O	-0.1497722712150933	-0.059614246213207545	1.9963789882264151
O	-3.3189259012150933	3.101303951786792	2.1804195082264153
O	0.6058316187849069	0.7108194257867925	0.32757268422641517
O	-5.691381491215093	5.875875221786793	0.31225442022641525
O	-3.299436541215093	6.323005901786793	1.8286211982264151
O	-7.100512541215093	5.428330071786793	0.4033042782264151
O	-5.465261531215093	7.099344681786793	0.43342614822641523
O	-2.6311536252150933	-2.5899063582132076	-1.7374427017735847
O	0.030585168784906802	-1.3248910582132076	2.5942879182264154
O	0.0915816487849066	-2.5053698282132078	1.7736543382264152
O	-0.8376156792150933	-3.567349958213208	1.6892922982264154
O	-0.6716294512150933	-4.228873858213207	0.4729759682264152
O	0.5518131387849066	-4.074480508213207	-0.23915054877358477
O	1.7304768687849068	-3.7916581682132073	0.4893575482264152
O	1.4507735987849066	-2.7615578982132076	1.416585408226415
O	2.6758800087849073	-4.754160838213207	0.8488508282264151
O	3.325768718784907	-4.768049598213207	2.0526370982264153
O	3.299784678784907	-3.6328718582132074	2.8029220282264156
O	2.472123688784907	-2.574424178213208	2.361814408226415
O	-1.1388975922150935	-4.301105948213207	2.966891208226415
O	-0.6382866012150934	-5.7075302482132075	3.0590952682264154
O	10.026889088784907	6.334504101786793	8.787834728226416
O	10.742247388784907	4.5994386717867926	5.470117888226415
O	13.197687088784907	3.0166886317867925	-0.2942937087735848
O	-0.5159948512150934	3.5987152617867926	-10.522255421773584
O	-5.529116161215093	5.184359771786792	-9.716751521773585
O	-3.3152987112150933	9.752630971786791	-8.282316751773585
O	-5.769139401215093	9.613408751786793	-5.382451331773585
O	-4.437166721215093	12.956124091786792	-4.123898911773585
O	-0.8393140812150933	11.848799891786792	-4.505229671773585
O	-1.3753103192150933	8.748158971786792	-2.311615031773585
O	-10.800908091215094	-4.057469718213207	-5.177383771773585
O	-12.506134411215093	-3.278203308213208	-1.8498152717735847
O	-11.077130001215092	0.2667109197867925	-1.927714491773585
O	-7.551463461215093	-0.9822452982132076	-2.336706771773585
O	-8.007623671215093	-3.517967148213208	0.4529124682264152
O	-9.187175131215094	-1.0218084782132073	2.913089928226415
O	-6.261721181215093	0.8625641362867925	2.068040008226415
O	-3.999480161215093	-1.5676388882132075	3.0899148382264157
O	-5.807040691215093	-1.9580026782132074	6.367701208226415
O	-4.983883791215093	1.5806238597867925	7.102941608226415
O	-1.3573711192150932	1.1964429747867924	6.514437608226415
O	-1.3161673072150932	-2.1670476282132074	8.535042748226417
O	-2.7177935512150935	-0.34289525821320754	11.486478978226415
O	0.0058528987849066905	2.2949550617867924	11.208347578226416
O	2.599588408784907	-0.4619885382132075	10.865095978226416
O	1.4222930787849066	-2.2954994282132075	13.982675078226416
O	1.9431201487849068	0.9039991785867925	15.970317678226417
O	2.2820620887849064	-9.791841908213208	10.686721678226416
O	4.959484688784907	-6.625334788213207	8.388979248226416
O	5.731436958784907	-9.144924608213207	5.607923478226415
O	7.164698578784908	-4.758512318213207	3.2545513082264153
O	9.586001088784906	-1.2107064682132078	-0.28128826877358476
O	9.096415888784907	-3.7218947282132073	-3.099881821773585
O	5.746323348784907	-2.9687734582132075	-7.677201761773585
O	5.432385488784907	-1.4801248082132075	-4.1758150717735845
O	5.993363198784907	1.9403438917867923	-2.685002971773585
O	3.021359388784907	3.481194251786792	-0.8986796977735848
O	2.5462365587849067	6.789911451786793	0.9249054782264152
O	5.9267039387849065	7.1141061617867924	2.3475514082264155
O	7.211116538784907	6.562157481786793	-1.1724047387735848
O	5.095490188784907	9.230639241786792	-2.8646853017735845
O	3.2889999187849073	6.559284821786793	-4.841430121773585
O	4.150463488784907	3.3406148617867926	-6.605589761773585
O	1.6548470887849065	0.6950676667867925	-7.450359791773585
O	2.507515118784907	-5.660345208213207	-9.016374831773584
O	-2.190448927215093	-4.014384428213207	-11.250551521773584
O	-2.5876943462150934	-5.413303298213207	-7.735865701773585
O	-2.4114944552150934	-9.066899068213209	-9.075586701773585
O	-7.6057206112150935	-7.391996308213208	-8.863000461773584
O	-1.7124565898150934	-9.056704828213208	-2.7556848817735844
O	3.602916928784907	-10.609230608213208	-0.3534904707735848
O	5.524086768784907	-10.051424708213208	-3.644903601773585
O	-16.596537611215094	-5.8542771682132075	4.852649218226415
