79

O	-3.989766427777778	-3.9665114456714288	1.0399861158555554
O	-3.475047707777778	-3.078243285671429	2.4647724628555556
O	-2.463041307777778	-1.7580903156714287	1.8354347628555554
O	-1.401685175777778	-1.3983614156714288	2.5245368428555555
O	-2.773759757777778	-1.0008080656714289	0.7874681048555556
O	-2.147772677777778	0.22447382542857108	0.6294490718555555
O	-2.777623127777778	0.9595775483285711	-0.3356422991444445
O	-0.867790502277778	0.1352314993285711	1.1349820148555556
O	-0.334758595777778	-0.556116515671429	2.1142763728555556
O	0.6264730422222221	-0.980471585671429	3.1572256128555556
O	0.42238318222222204	-0.826808905671429	4.553945232855556
O	0.8448214722222219	-1.656431435671429	5.551737532855555
O	2.022077782222222	-2.283721095671429	5.262425422855555
O	2.572496832222222	-2.167150975671429	4.017875122855556
O	1.6052351722222218	-1.9539609056714289	2.9972836228555555
O	1.854428632222222	-2.691804575671429	1.4591535328555554
O	1.3392913522222218	11.725534354328571	5.664265062855556
O	2.561156452222222	8.119376534328572	5.878100662855555
O	1.299235342222222	7.099538074328571	2.4199011828555554
O	-2.046999397777778	8.92093946432857	2.8687911828555555
O	-2.421221507777778	7.144022954328571	6.249206452855556
O	-1.8460737567777779	3.811824084328571	4.482474812855555
O	-4.474147447777778	4.749954904328572	1.8346450328555555
O	-6.914359837777778	5.7362068743285715	4.627537652855556
O	-6.2959699477777775	2.370768054328571	6.416743892855555
O	-6.904389367777777	0.4888433103285711	3.1020981228555553
O	-10.105883907777779	2.4861956443285713	2.4840617728555556
O	-11.306474377777779	1.6137980343285712	6.017794762855556
O	-10.684594057777778	-2.095058435671429	5.285406822855555
O	-7.530582627777778	9.33166068432857	-2.6330294671444445
O	-0.798952775777778	8.59335110432857	-4.559122757144444
O	-3.832728617777778	6.548088734328571	-5.732505957144444
O	-6.555764797777778	5.047041964328571	-3.5702688671444447
O	-9.586147867777779	2.854806334328571	-4.040049437144445
O	-8.890015417777779	0.881845636328571	-0.8914204171444444
O	-8.814960067777777	-2.8853000656714287	-0.4099710271444445
O	-5.600140507777778	-3.384979765671429	-2.3981712271444446
O	-3.2676710277777783	-6.386681425671428	-2.2118465771444447
O	-3.190146217777778	-9.86045844567143	-3.6080107171444444
O	0.19266006222222198	-10.943068745671429	-5.045604557144444
O	0.874209682222222	-12.89563394567143	-1.7954872971444447
O	-0.10623995277777798	-9.816203645671429	0.35545563685555553
O	2.167498392222222	-7.646271735671428	-1.7795578271444445
O	5.239396722222223	-9.944354545671429	-1.4518107471444446
O	4.652558622222222	-10.44245134567143	2.2760595728555555
O	3.847588412222222	-6.8392038056714295	3.2186979128555553
O	6.410235042222222	-5.0310334256714295	1.0208578088555555
O	9.642527022222222	-6.5970999156714285	1.9944535228555555
O	8.515295272222222	-10.71658354567143	6.010475362855556
O	8.318254132222222	-6.283259835671428	10.432099782855556
O	7.787317502222222	-6.0700100056714295	14.175930982855556
O	4.603170742222223	5.527314854328571	11.289393482855557
O	4.589673742222223	0.2669861386285711	11.387112782855557
O	7.2337433822222215	0.8781629093285711	8.702625602855557
O	5.961421532222222	4.2853464943285715	7.457053472855556
O	5.848711172222222	3.1798492843285713	3.8000199528555556
O	9.65962882222222	3.169494004328571	3.7180218328555554
O	9.686917722222221	6.96142316432857	4.391166152855556
O	8.956834972222222	7.130933154328572	0.6193923938555556
O	12.749050222222222	6.610582784328571	0.22203903195555552
O	12.56356802222222	4.441739114328572	-6.9022101171444445
O	9.051047822222221	3.4866019243285713	-5.824052867144444
O	6.503341642222223	1.5395654343285712	-7.936222727144444
O	3.418426312222222	0.09988267232857109	-6.153014037144445
O	0.532590392222222	-0.9780211256714288	-8.429628147144443
O	-2.232697887777778	-2.867079075671429	-6.609109787144445
O	-5.488784007777777	-4.63922975567143	-7.363841327144445
O	-7.466049467777777	-6.651360135671428	-4.824837937144444
O	-10.894359867777778	-8.187299905671429	-5.502281887144444
O	-9.354276477777779	-11.70951084567143	-5.156321627144444
O	5.972371862222222	-4.036808635671429	-7.225264597144444
O	9.105611122222221	-1.904995165671429	-7.760033397144444
O	-9.499606097777779	-1.8802284456714289	-6.947004037144445
O	-6.954337807777778	-0.21819643167142888	-4.760219117144445
O	-3.335888997777778	0.8571608823285711	-4.736356017144445
O	-1.199669215777778	3.388442534328571	-6.576224257144444
O	2.190024672222222	4.384812844328572	-5.115006437144444
O	4.3820896722222225	6.107080664328571	-7.740729417144444
O	-8.256314527777779	11.07120655432857	7.287331912855556
