25

O	27.478238783680986	3.1441802675298405	4.974050676692744
O	26.657309961350897	4.4220403528837	5.019649464020437
O	25.383862794361775	4.169378385364739	6.778801132033346
O	27.439077027553772	5.549011352368138	5.201826382102148
O	27.486651368100386	6.472146744366162	6.369568764556054
O	28.267393172746566	6.429585854608036	7.395603791752149
O	28.207475501537868	5.466048762817231	4.032162339610705
O	29.136933034062636	4.362772990456175	3.9245036377489697
O	28.488278243560412	3.173288054892467	4.069080170913622
O	29.20555728848056	2.0328951907241506	3.8240783472487
O	28.895012364653272	0.6822585237419303	3.935641346944816
O	28.15721836552896	0.5487511733752144	2.8836923661364007
O	29.800836799603335	-0.3910900405893678	4.17279309280541
O	30.857261143969602	-0.5326978764917063	3.2538609228474433
O	29.24631224638731	-1.8092526266335354	4.247433129478733
O	30.374425622179057	-0.3101377820747875	5.521261693734996
O	29.447569865187017	0.37603725938763977	6.292849413683187
O	29.958980582867	1.5906321522334739	6.665824751363578
O	29.396860502766973	2.038773385805354	7.85510408319784
O	30.010482240104242	3.062499766540309	8.592178832996794
O	31.324710041102325	3.377444615778911	8.394405047656033
O	32.11612244225794	3.5150924488402264	9.600882384503386
O	32.64065546215393	4.103818178189878	10.412787120567724
O	31.91982561190263	2.6621880972748135	7.39872320294892
O	31.02701689345585	2.315180978403034	6.340902873719152
