25

O	-3.9085986614227295	0.2492903769016266	1.7394763231277466
O	-5.102283000946045	0.924125075340271	1.8842484951019287
O	-6.643538951873779	0.2783879339694977	3.1595773696899414
O	-5.300244331359863	2.0963871479034424	1.1466178894042969
O	-6.513758182525635	2.8368678092956543	1.2532000541687012
O	-7.506606101989746	3.4245290756225586	1.3311971426010132
O	-4.3220319747924805	2.563892364501953	0.2952061891555786
O	-3.1298227310180664	1.8553954362869263	0.17545157670974731
O	-2.910341262817383	0.6972571611404419	0.8914480805397034
O	-1.6939772367477417	-0.030279256403446198	0.7726194262504578
O	-0.6455203294754028	0.39009132981300354	-0.05692005529999733
O	-0.7310472130775452	1.4374314546585083	-0.7393956780433655
O	0.6065748333930969	-0.4645193815231323	-0.10610919445753098
O	0.40866369009017944	-1.564011573791504	0.7365068793296814
O	1.7555872201919556	0.3425286114215851	0.4239954650402069
O	0.745887279510498	-0.8807940483093262	-1.5302716493606567
O	1.75455904006958	-1.7288744449615479	-1.7803839445114136
O	3.1060729026794434	-1.6159546375274658	-1.6548550128936768
O	3.7914059162139893	-0.5112630128860474	-1.2156037092208862
O	5.1601738929748535	-0.4646287262439728	-1.1142030954360962
O	5.9558491706848145	-1.547693133354187	-1.4537972211837769
O	7.392873764038086	-1.4856842756271362	-1.3461503982543945
O	8.53826904296875	-1.4180535078048706	-1.2521450519561768
O	5.278066635131836	-2.6618096828460693	-1.8958309888839722
O	3.913785934448242	-2.7226178646087646	-2.0021755695343018
