93

O	1.1527625248411764	-0.35098554533823567	-0.9754277782647056
O	2.2374378348411765	-0.3636647953382356	-2.0394994332647056
O	2.998586934841177	1.6859116626617643	-2.0424555112647056
O	1.7419228048411766	-0.6497571253382356	-3.2992723662647054
O	1.6768577048411766	0.2315917586617643	-4.498044746264705
O	0.7086545248411764	0.9913954228617643	-4.884565206264705
O	1.2470444248411763	-1.9367275953382355	-3.0458253762647054
O	0.11688012484117638	-2.0496168953382354	-2.1498991562647056
O	0.40088897484117636	-1.4796040353382356	-0.9453435802647056
O	-0.5087229561588236	-1.6557124253382356	0.06292373373529436
O	-0.5771176121588235	-1.1732316953382353	1.3650905337352945
O	0.31209467484117637	-1.9306839353382355	1.9167502737352944
O	-1.7515751301588236	-0.9628966653382357	2.1430652837352944
O	-2.5869146751588232	-2.0800514653382356	2.3293298937352946
O	-1.5985710871588235	-0.4342408453382357	3.564812983735295
O	-2.5626065451588236	0.12852667966176434	1.5908442237352944
O	-1.6818123681588235	0.9539817159417643	0.9066870837352945
O	-1.9411722791588235	0.9010063249617644	-0.43712031426470555
O	-1.5539763681588235	2.0710592246617643	-1.0791876138647056
O	-2.0357766891588236	2.3733099346617643	-2.3615056262647056
O	-3.1553381251588233	1.7632409506617643	-2.8512989162647058
O	-4.127339455158824	2.6501644546617644	-3.4591214162647055
O	-4.649843515158823	3.1413220446617642	-4.334721726264705
O	-3.6820519951588238	0.8238716226617644	-2.0162572822647054
O	-2.698594395158824	0.14934832566176437	-1.2324622401647056
O	0.3216092948411764	-9.101971555338237	-7.204438556264706
O	-1.4053156421588235	-12.342022755338236	-8.164435136264705
O	-0.8337959401588235	-10.993875255338237	2.5261513137352942
O	-2.8164470951588236	-7.791899095338235	3.0082293537352944
O	-5.301817415158823	-8.642837045338236	0.25541210373529455
O	-2.3811950651588236	-9.138591855338236	-2.1368354382647055
O	-0.7331417161588236	-5.899395215338235	-0.9968798502647056
O	-4.088521795158824	-4.177231475338235	-1.6316611462647055
O	-4.5429452451588235	-5.712477705338236	-5.055748866264706
O	-0.9332181601588235	-4.972447705338236	-5.943096366264705
O	-1.5514929631588235	-1.5291374153382358	-4.924858806264705
O	-4.2332383151588235	-1.0434074153382356	-7.186319036264705
O	-2.4579214551588233	-2.6017483353382356	-10.099793796264706
O	0.5501607148411765	-0.29649607533823563	-9.635489206264706
O	-1.5837600961588234	2.8290022346617643	-9.289062886264706
O	-2.9596450551588234	2.1157475446617644	-12.806605296264706
O	1.5242533748411766	5.391716044661765	-11.822390596264706
O	-1.2585659837588234	7.378681214661764	-13.473096596264705
O	2.4328387948411763	10.742694024661764	-3.8000247862647054
O	1.1491911048411763	7.278292594661765	-4.574951716264706
O	2.4682516948411766	5.435822044661765	-1.4448712952647056
O	5.899861234841177	7.2557543446617645	-1.5208636912647056
O	6.361984514841177	6.406664894661764	-5.206071956264705
O	5.741673684841176	2.7049531446617645	-4.603711726264706
O	8.101514974841177	2.7357886446617643	-1.5763714372647055
O	10.905839504841177	4.305215794661764	-3.5607555462647054
O	10.445042104841177	2.0356453546617646	-6.587664066264706
O	10.196471804841178	-1.0448065653382357	-4.343380166264705
O	13.860229204841177	-3.2689006853382354	-7.084781736264706
O	11.563331404841177	-6.715240425338235	-0.08936897626470564
O	10.674376004841177	-7.105851045338235	-3.7674996362647057
O	7.0530948248411764	-5.732190075338235	-3.8224735062647057
O	6.469298614841177	-7.841007795338235	-6.891356296264705
O	5.209284004841177	-10.974301555338236	-3.5599439462647053
O	1.9867992748411765	-8.490305745338237	7.596919623735294
O	2.0477249848411763	-6.542483675338236	10.875505603735295
O	4.046087514841176	-3.8315434453382355	9.048688603735295
O	7.440935834841177	-4.995874245338236	10.271783103735295
O	8.902645104841177	-1.6204318653382357	11.311507603735295
O	7.857143184841178	-0.0793253553382357	8.031739513735294
O	9.346671804841177	-3.0331342553382354	6.151846213735294
O	9.196764604841176	12.450776144661763	-5.679179866264706
O	8.159165124841177	5.667596444661765	5.715373223735295
O	5.170770824841176	6.597286124661764	3.5605189337352945
O	3.6084185148411767	8.200070704661764	6.640985893735294
O	3.8715313848411763	5.0126682146617645	8.732072043735295
O	2.3243300648411767	3.0367062146617645	5.888236603735295
O	-0.3990206191588236	5.6676030646617646	5.603324553735295
O	-1.1276802267588235	5.529934674661765	9.316060503735294
O	-1.0926993131588236	1.7404150406617642	9.416027003735294
O	-3.3518367851588233	1.4975320866617643	6.285440013735294
O	-5.782725615158823	4.030624114661764	7.725766983735294
O	-6.561523395158824	-1.1329200253382354	9.038369803735295
O	-9.394346735158823	0.19636583966176435	6.852531723735295
O	-11.235374795158823	-3.8865999253382357	8.017624003735294
O	-9.609940415158823	-8.751041575338236	10.226969603735295
O	-9.246904465158822	-7.699129075338235	4.778241513735295
O	-9.966200235158823	-3.197978655338235	0.3995815637352944
O	-10.356146735158823	-2.3892447853382355	-3.2968584562647054
O	-10.294772815158822	2.9546036846617643	-5.464221126264706
O	-7.935867505158823	2.3513851546617643	-2.5922189762647054
O	-10.774045235158823	2.533497854661764	0.03871267373529452
O	-11.917535695158824	5.847980254661764	-1.3439540182647056
O	-8.412954115158824	7.281635264661764	-1.3661691672647056
O	-7.654694395158824	6.0663167846617645	2.1365761737352944
O	-10.853948035158822	7.707161524661765	3.445729723735295
O	-5.020785105158824	9.923378464661763	3.3731612937352944
O	-6.817270905158823	11.666334144661764	6.2783168037352945
