80

O	-4.2969361675535716	0.6140780397517855	-0.5684205119821426
O	0.6573486124464283	-2.3917944002482145	-0.7666894859821427
O	2.7383669824464283	-5.026953960248215	0.6977172300178573
O	-3.489240817553572	-0.4603873162482145	-0.3201145231821427
O	-4.074028837553572	-1.5414323202482145	-0.16277638598214267
O	-2.093394920553572	-0.23370663594821448	-0.35075858348214267
O	-1.2022538185535718	-1.2109460512482144	-0.5736554179821427
O	-1.4191977823535717	-2.5113283702482145	-0.5934761349821427
O	-0.4194977835535717	-3.2262511802482146	-1.0838916229821427
O	-0.20454822755357172	-4.663183230248215	-0.8093173489821426
O	0.4845923724464283	-5.515323680248215	-1.5839893799821425
O	0.8022205324464282	-6.8104321202482145	-1.2435234669821427
O	0.3198972924464283	-7.266631400248215	-0.06653770598214265
O	-0.28753418755357174	-6.348273540248215	0.7307917300178575
O	-0.8705651095535718	-5.246444270248215	0.19726675601785731
O	1.9814033824464283	-3.0264612902482146	-0.5780846059821427
O	2.022960202446428	-3.8779381502482146	0.5357028020178574
O	3.582290052446428	-5.415166180248215	-0.27827863298214267
O	3.584281872446428	-4.739448000248215	-1.4119561899821427
O	2.6417388024464286	-3.7208745802482146	-1.5927764299821425
O	0.15062672244642816	-1.1374757772482145	-0.6980178599821427
O	0.7428420724464282	0.08470189475178552	-0.6432471619821427
O	-0.12467151755357175	1.1819289597517855	-0.5088475469821426
O	-1.5170670255535716	0.9340805797517855	-0.4197459268821427
O	2.507130032446428	-7.069796500248215	-11.016348899982143
O	-0.9495456365535717	-6.556038260248215	-9.460348319982142
O	-0.5299495455535718	-6.4506096302482145	-5.819706139982143
O	-4.147792207553572	-6.717622870248215	-4.915835519982143
O	-7.601772807553572	-5.286426160248215	-5.314232829982143
O	-10.861423677553573	-4.764163310248215	-3.4670329199821426
O	-13.006085907553572	-1.9525324702482145	-2.0883062799821426
O	-10.085254197553573	0.4351518857517855	-2.4975284999821428
O	-9.634604977553572	-0.35598467434821446	-6.238831669982143
O	-6.596222217553572	-2.1046810002482146	-7.813108999982143
O	-3.0073362875535716	-1.6543698602482144	-6.848607759982143
O	0.10774253244642829	-2.4236885902482146	-8.831784649982142
O	3.739967862446428	-2.6129234802482144	-7.855773149982143
O	5.647071932446428	0.016773612751785516	-9.865610629982141
O	12.020285592446427	4.537281109751786	-6.756707909982143
O	9.584811592446428	1.7802096697517857	-5.754942689982143
O	6.023132182446428	3.1073222697517857	-6.017956609982143
O	2.4737107024464287	1.8107307597517854	-5.680319069982143
O	0.0688625624464283	2.5450333597517854	-8.505263209982143
O	-3.523753727553572	2.7381300897517855	-7.396430439982143
O	-6.485320387553572	2.7530190297517856	-9.729336869982141
O	-8.722161417553572	10.474589059751786	-0.9180627529821426
O	7.247181622446428	8.908483879751786	7.499403530017857
O	4.243919302446428	7.714412209751785	9.584916640017857
O	1.6355110924464282	8.429830579751785	6.907160300017857
O	2.053434622446428	7.083716449751785	3.3280254500178574
O	-4.535110827553572	6.861453079751785	-10.757001199982142
O	-2.5378605375535717	7.533000199751785	-7.572100159982143
O	1.2048322824464284	7.1044809297517855	-7.316965529982143
O	2.174014942446428	6.482113189751785	-3.7290811399821426
O	5.253200832446428	5.582078719751785	-1.7760497799821426
O	6.026946972446428	1.8425262197517855	-1.5991249599821427
O	8.450439802446429	0.6729978077517855	1.1739546700178574
O	10.620453292446427	-2.3387020602482145	0.22749163201785733
O	10.792404392446429	-4.8245702702482145	1.7498524200178576
O	7.4320499524464285	-4.296461560248215	3.3758059100178572
O	4.704501242446428	-6.325513850248215	5.171588420017857
O	1.1445006224464283	-5.237604290248215	6.097443310017857
O	0.29653628244642816	-5.720023650248215	9.814688500017859
O	-2.4330067575535717	-8.246742890248214	8.958364270017858
O	0.0103431424464282	-10.591082440248213	7.224099950017857
O	2.6286086124464285	-9.951644900248214	9.855914400017857
O	0.1901727124464283	-10.996772040248214	12.638457600017858
O	-3.9930794875535716	-4.059332330248215	10.576575900017858
O	-4.593255717553571	-4.274823680248215	6.792291740017857
O	-4.088906087553572	-0.4485511292482145	6.630349050017857
O	-0.6908162835535717	-0.5255702032482145	8.258801040017858
O	2.5382108324464285	-1.1671951172482145	6.398795080017857
O	5.721809522446428	-2.2019065502482147	8.038743330017859
O	4.954669032446428	1.8066795097517856	10.172629100017858
O	2.9776273824464283	3.6309029897517857	7.487020740017857
O	-0.7483870015535717	4.376036209751785	7.516962790017857
O	-2.3465692875535717	3.6978737797517858	4.138737930017857
O	-5.731950237553572	3.9649889297517853	2.4106322800178575
O	-7.402838247553572	7.1802410497517855	2.9063753400178576
O	-10.221080017553572	6.085277189751785	0.6073172700178573
