24

O	-16.353	34.639	1.306
O	-19.469	37.586	-1.023
O	-22.352	39.879	-1.977
O	-16.636	35.537	2.261
O	-15.997	35.542	3.31
O	-17.671	36.548	1.986
O	-18.184	36.687	0.672
O	-17.957	36.014	-0.504
O	-18.705	36.549	-1.523
O	-18.694	36.03	-2.915
O	-19.878	36.024	-3.684
O	-19.854	35.527	-4.979
O	-18.669	35.029	-5.512
O	-17.504	35.011	-4.748
O	-17.509	35.501	-3.459
O	-20.369	38.526	-1.75
O	-21.609	38.952	-1.253
O	-21.872	40.405	-3.177
O	-20.633	40.014	-3.668
O	-19.885	39.096	-2.954
O	-19.125	37.695	0.406
O	-19.547	38.542	1.437
O	-19.054	38.406	2.716
O	-18.102	37.426	2.993
