47

O	11.739	16.66	12.205
O	12.219	17.82	12.633
O	12.304	18.969	11.575
O	10.997	19.68	11.396
O	9.691	19.26	11.036
O	9.383	17.786	11.073
O	8.393	17.182	10.564
O	7.441	17.848	9.884
O	8.33	15.892	10.706
O	13.66	17.606	13.149
O	14.391	16.787	12.492
O	14.155	18.236	14.354
O	15.629	18.308	14.641
O	15.668	16.787	15.013
O	14.815	16.088	15.644
O	15.662	19.096	15.874
O	14.848	20.247	15.402
O	13.595	19.553	14.837
O	14.489	21.381	16.402
O	13.532	20.873	17.516
O	12.225	20.35	16.891
O	12.525	19.188	15.923
O	16.851	15.992	14.597
O	17.157	14.549	14.828
O	17.149	14.333	16.383
O	17.826	15.021	17.196
O	18.461	14.369	14.2
O	19.092	15.638	13.815
O	17.96	16.605	13.844
O	16.25	13.346	16.66
O	15.849	12.833	17.94
O	16.153	11.359	18.2
O	15.045	13.51	19.004
O	15.126	13.039	20.212
O	13.432	15.275	19.365
O	13.052	16.384	18.505
O	12.092	17.296	19.171
O	10.544	17.254	18.929
O	12.625	18.347	20.142
O	9.595	18.181	19.589
O	11.652	19.336	20.852
O	10.134	19.229	20.549
O	12.332	14.292	19.762
O	9.164	20.212	21.225
O	11.76	13.491	18.969
O	14.325	14.492	18.544
O	11.9481	14.2781	21.0353
