96

O	5.328001541877551	0.4557593941224489	-0.6257915524448975
O	4.223700961877551	-0.049323475877550926	0.21454809055510252
O	3.620966251877551	0.10951822412244905	-1.0722954674448975
O	2.657140801877551	-1.121554815877551	-1.6774641774448975
O	2.150261551877551	-0.006158105877551279	-1.8429617474448974
O	1.567193271877551	0.18485892412244898	-3.1568273274448977
O	2.3155770218775507	0.3476853941224489	-4.338030787444898
O	1.712533021877551	-0.04128651587755128	-5.552893067444898
O	3.570678581877551	0.35154578412244897	-4.105159597444898
O	4.064229861877551	0.33314270412244884	1.5438338225551025
O	4.711039481877551	-0.3846010258775512	2.3819341125551023
O	3.526984481877551	1.3185113661224488	2.4649095125551024
O	2.527326511877551	0.398190234122449	2.7786036325551025
O	1.7085638818775508	1.0499438541224488	2.0659493225551024
O	1.853517021877551	0.008443614122449095	1.3405565525551024
O	2.6895604418775507	-0.10407221587755089	3.8542701225551026
O	3.1001463618775507	1.193390234122449	4.696534362555102
O	3.081307691877551	2.140989391122449	3.4713728525551026
O	4.557249781877552	1.5052371261224489	4.528206872555103
O	4.88872211187755	2.943531186122449	4.9788023325551025
O	3.539898871877551	3.616460284122449	5.271349352555102
O	2.8196180718775508	3.366294454122449	3.9267666525551026
O	0.9657487238775508	1.6578280941224488	3.0968250925551026
O	-0.2025137541224491	1.367419248122449	2.3247414025551025
O	0.6232607469775509	1.730435744122449	1.1609553925551026
O	0.9840552898775509	1.321231186122449	0.0593432718551025
O	-0.2735900491224491	-0.07147172587755124	2.9105430925551024
O	0.032226918877550914	0.18168149412244894	4.3873659125551026
O	0.4379383689775509	1.619372318122449	4.371456282555102
O	1.2909919528775509	2.907303187122449	1.1297233825551025
O	2.089065341877551	3.839015364122449	0.6607805345551025
O	1.5375921818775509	4.916603344122449	1.4317876525551025
O	3.358702151877551	3.346965304122449	0.3666408865551025
O	3.146158201877551	2.593883889122449	-0.5735313034448974
O	5.86358924187755	2.814830034122449	0.8245326685551025
O	5.607007121877551	3.707916124122449	1.9608989425551027
O	5.02566817187755	5.021862434122449	1.8931223325551025
O	4.97768891187755	5.726851044122449	3.0987271225551023
O	4.74954876187755	5.850003064122449	0.8546220025551026
O	3.789872521877551	6.449539814122449	3.2607056725551025
O	3.986987181877551	6.998983464122449	1.0442147925551024
O	3.576026751877551	7.430862694122449	2.2991415325551023
O	6.683408311877551	1.791385446122449	1.5257322425551025
O	2.211552631877551	8.041435034122449	2.5127952625551027
O	7.1514414718775505	0.681372254122449	1.0668158525551026
O	4.534653731877551	2.921786034122449	0.6602755085551025
O	6.698683401877551	1.4189747641224488	2.8677063425551026
O	1.5142700698775509	-14.324824005877552	4.747333282555102
O	0.2361039988775509	-10.883737805877551	5.563394912555102
O	-1.8407188781224493	-9.358275405877551	2.8799932825551027
O	-4.33950333812245	-10.209729905877552	0.1862085805551025
O	-4.57543389812245	-1.399576515877551	7.368315412555103
O	-3.453142138122449	-4.947746045877551	6.903649712555103
O	-1.6652685681224493	-0.28719724587755113	11.483198112555101
O	1.1407156448775508	-0.047504735877550885	14.095138712555102
O	3.732883931877551	1.5572304191224489	11.844512212555102
O	3.621194651877551	-1.6964099658775509	9.7084876025551
O	3.550111661877551	-4.157279495877551	12.472949912555102
O	-0.18569062512244916	-4.577094155877551	11.852296212555101
O	-4.59635681812245	5.7139227141224485	9.671053292555102
O	-2.754005388122449	8.67928965412245	11.129788012555101
O	-3.250364678122449	10.25510948412245	7.696182922555103
O	-3.978165508122449	9.069218054122448	4.183883502555102
O	-5.699516538122449	5.790479084122449	5.160059062555103
O	-9.20703085812245	7.211813794122449	4.338959722555103
O	9.92587215187755	-2.5318943758775507	-5.619714177444897
O	13.673199431877551	-2.8248702958775507	-5.218727047444897
O	16.37946163187755	-5.366942655877551	-4.458049777444898
O	1.5082440898775509	15.177554794122448	-2.0618820174448973
O	-0.4578614791224491	12.685387094122449	0.0713291015551025
O	1.1237605048775507	-1.9819460358775514	-10.409986487444899
O	0.21475079987755086	-3.690445025877551	-7.153033797444897
O	3.1159690818775507	-3.8807728158775507	-4.799743847444898
O	4.196745091877551	-4.5787883958775515	-1.2442357474448975
O	2.3322891818775506	-7.768492905877551	-0.1044769576448975
O	-0.6861178881224492	-7.067452935877551	-2.4082119974448974
O	-2.326642088122449	-4.666954975877551	0.1088012205551025
O	-5.831704188122449	-5.83778177587755	0.8839864955551026
O	-6.318403828122449	-7.708153315877551	-2.4036680074448973
O	-9.088181588122449	-2.8019686958775507	-2.3930917774448974
O	-5.37359841812245	-2.478955985877551	-2.8709575074448974
O	-4.942764248122449	0.3663552241224488	-0.5009057814448975
O	-1.7800334681224492	2.465721573122449	-0.9763108264448975
O	1.0418419528775509	3.7503785741224487	-3.2969345674448975
O	4.59458557187755	5.200503174122449	-3.2307510974448976
O	6.988673261877551	2.509787190122449	-4.182780097444898
O	5.737263241877551	0.23321711412244905	-7.004516227444897
O	5.3394187618775515	0.8817011941224489	-10.789349687444899
O	7.291164651877551	4.172964874122449	-10.685745087444898
O	6.75686247187755	6.511962544122449	-13.6464868874449
O	2.989742781877551	7.350944884122449	-9.700598707444898
O	-0.24070191012244913	5.378676524122449	-9.434807307444899
O	-1.765962818122449	2.767154646122449	-7.184480017444898
O	-4.595070128122449	3.7942336841224487	-4.909448537444898
O	-7.655109068122449	1.696303017122449	-4.157527247444897
O	-10.397776268122449	1.8548861671224488	-1.5031000574448974
