25

O	-26.648	3.299	-15.979
O	-27.422	3.419	-15.04
O	-27.668	2.381	-14.225
O	-28.198	4.634	-14.622
O	-27.503	5.914	-15.071
O	-26.195	6.179	-14.341
O	-25.811	5.53	-13.364
O	-25.507	7.227	-14.918
O	-24.266	7.714	-14.451
O	-23.192	6.85	-14.195
O	-21.98	7.347	-13.714
O	-21.848	8.718	-13.486
O	-20.204	9.359	-12.833
O	-22.897	9.604	-13.727
O	-24.115	9.101	-14.199
O	-25.211	10.062	-14.477
O	-25.005	10.827	-15.42
O	-26.401	10.085	-13.741
O	-26.542	9.454	-12.412
O	-26.936	10.395	-11.275
O	-27.285	9.594	-10.02
O	-28.102	11.3	-11.671
O	-27.391	11.134	-14.054
O	-27.71	12.095	-12.906
O	-28.8	13.09	-13.297
