67

O	4.944663006452381	-7.1377667183547615	-4.054607120604762
O	5.289586646452381	-6.709400188354762	-2.9431056106047615
O	5.926074666452381	-7.346151868354761	-1.9153103476047617
O	4.953662446452381	-5.312089668354761	-2.701778970604762
O	3.699896616452381	-5.188887738354762	-2.0206493216047616
O	2.398740286452381	-5.366343408354761	-2.6422888906047617
O	2.5388205564523814	-6.163087068354762	-3.6351711006047616
O	1.0686027564523812	-4.9740765983547615	-2.8543326406047616
O	0.529796273452381	-3.959428388354762	-3.650089020604762
O	-0.716266092547619	-3.870222858354762	-4.294676670604762
O	-1.1692756435476188	-2.646101448354762	-4.831187540604762
O	-1.0011261135476188	-1.562567168354762	-4.018313250604762
O	-1.694825583547619	0.10738079064523823	-4.658103050604762
O	0.2578543394523811	-1.525544428354762	-3.4535620106047618
O	0.7145511404523811	-2.734540288354762	-2.996168600604762
O	2.200606546452381	-2.6875741883547617	-2.6423774106047615
O	2.1867489164523812	-2.679313518354762	-1.4331237122047618
O	2.975692756452381	-2.533810488354762	-3.766882940604762
O	3.498197806452381	-3.332192698354762	-4.833276890604762
O	2.367896686452381	-3.882351758354762	-5.549344880604761
O	3.1606036764523813	-4.861073138354762	-6.485057550604761
O	1.5393083364523812	-3.166108088354762	-6.542157290604761
O	2.300395236452381	-1.5418051283547618	-4.617285590604761
O	1.8033546764523811	-1.8151157283547619	-5.877215520604762
O	3.096376146452381	-1.868884558354762	-6.799541000604761
O	10.960039236452381	6.975380991645238	-2.231183549604762
O	9.83014870645238	3.447886891645238	-1.3791805046047618
O	11.67381523645238	0.22820023364523823	-0.3524152306047619
O	11.772350436452381	-1.5923373083547618	3.0124207993952385
O	11.569206736452381	-5.337429118354762	3.8340465393952385
O	12.655793736452381	8.155200141645238	1.9044509093952382
O	9.330110016452382	9.015613101645238	3.5351465493952388
O	2.232763526452381	6.123534261645238	2.3573707893952385
O	0.43371689845238104	4.153443991645238	-0.2548182306047617
O	-2.799856413547619	5.999571771645239	0.1473157793952382
O	-2.941918933547619	6.119339271645239	3.988234859395239
O	-2.370294803547619	2.351130231645238	4.316241989395238
O	-4.571697663547619	1.216825361645238	1.4826860993952382
O	-7.493228073547619	3.5407042516452383	1.702834859395238
O	-8.795346803547618	0.07034047454523823	5.358296959395238
O	6.814211616452381	-3.030825068354762	5.211423789395239
O	7.292890546452381	-0.29975483935476177	2.590536819395238
O	6.784339566452381	-1.340483218354762	-0.9417614296047618
O	7.705713576452381	-0.3170864153547618	-4.480115940604762
O	6.4925843264523815	3.359912231645238	-4.287338480604761
O	7.593526916452381	5.282476421645239	-7.2746233106047615
O	5.596250476452381	5.752277111645238	-10.491984980604762
O	1.4103065364523812	5.922186051645238	-7.686057900604761
O	-2.8028697035476187	8.490445331645237	-5.972125810604761
O	-4.621763343547618	6.609130181645239	-8.775685840604762
O	-9.156928353547618	8.275767301645237	-6.989257080604761
O	-9.174833563547619	1.7694809016452382	-7.545621490604762
O	-6.340905223547619	0.33505061564523825	-5.420772020604762
O	-7.251732503547619	-3.3013005083547617	-6.278320740604761
O	-8.751600683547618	-1.6636340883547618	-1.3806439626047617
O	-6.360473083547618	-4.5669294183547615	-1.3023129136047618
O	-9.332465323547618	-6.967797078354762	-1.4499256082047618
O	-7.961039593547619	-4.859771248354761	3.5434672393952384
O	-7.6704703835476185	-8.663010958354763	3.5294249193952387
O	-10.530440663547619	-5.905888028354761	7.366980469395239
O	-7.255280853547619	-7.585681698354762	8.54114739939524
O	-2.395449043547619	-4.679266398354762	7.023546769395239
O	0.587512665452381	-7.034525068354761	6.5384400593952385
O	0.985033086452381	-5.386901078354762	3.0440533893952386
O	-2.3772105435476187	-6.982506368354762	2.106390849395238
O	-1.5930390335476188	-10.713954958354762	2.6239110393952387
O	0.8285307444523811	-12.964814258354762	0.7357761493952382
