25

O	4.590658664703369	0.9807379841804504	4.717658519744873
O	5.38295316696167	0.3948556184768677	3.7404963970184326
O	6.610710144042969	0.15836000442504883	3.8883888721466064
O	4.765608310699463	0.02612544223666191	2.458914041519165
O	3.3099846839904785	0.3423241376876831	2.3721020221710205
O	2.825867176055908	-0.08405561000108719	1.0274194478988647
O	3.5832884311676025	-0.6130353212356567	0.17047539353370667
O	1.476286768913269	0.07148469239473343	0.6061797142028809
O	1.028637170791626	-0.3394196629524231	-0.6784330010414124
O	1.8243303298950195	-0.919917106628418	-1.6404380798339844
O	1.3399507999420166	-1.3020573854446411	-2.8758020401000977
O	0.016211198642849922	-1.1162506341934204	-3.206303834915161
O	-0.6899140477180481	-1.6339963674545288	-4.909818172454834
O	-0.7951745986938477	-0.5374692678451538	-2.257924795150757
O	-0.29548776149749756	-0.15198978781700134	-1.0051531791687012
O	-1.163933515548706	0.45912477374076843	-0.010787250474095345
O	-0.7207880616188049	0.8082995414733887	1.1184254884719849
O	-2.5285143852233887	0.6559142470359802	-0.33860138058662415
O	-2.9933156967163086	0.23994097113609314	-1.6460926532745361
O	-4.000463962554932	-1.003901481628418	-1.2047998905181885
O	-4.704439163208008	-1.0638223886489868	-2.6987955570220947
O	-5.135400772094727	0.030557874590158463	-0.606902539730072
O	-3.4736530780792236	1.2618541717529297	0.597027599811554
O	-4.544445991516113	0.050360918045043945	0.9365723729133606
O	-5.708955764770508	1.124111533164978	1.4461926221847534
