25

O	-27.46023844630415	4.456714207002735	-17.594668670484985
O	-26.281803187699623	4.095774957172065	-17.45712228777453
O	-25.48335389651231	3.366692309225593	-18.292496471058534
O	-25.657944205942783	4.526410967425449	-16.21256899354549
O	-24.941278042388774	5.753908648517811	-16.38773783697328
O	-25.558424077233525	7.064393745658074	-16.50040391664858
O	-26.735052279551077	6.908703238845765	-16.981594694124038
O	-25.624512777969905	8.428859572671126	-16.181081287627862
O	-26.09817224191525	9.079094294166602	-15.038324466748438
O	-26.665255920150514	10.356145487370656	-14.884445823357336
O	-26.834039679571408	10.92525328132041	-13.604147750732388
O	-25.758445047024445	10.804003376193688	-12.77259495104961
O	-25.898462258496806	11.651627637123253	-11.057600950650281
O	-25.233663153599508	9.527347881758432	-12.782651802263848
O	-25.136845729365447	8.959295401910488	-14.026594910109008
O	-24.81718433897148	7.466744185890108	-13.950160929314258
O	-23.652316081030524	7.426606916967268	-14.272691115432025
O	-25.873087828381642	6.7572374990486725	-13.42998530728919
O	-27.129394763283052	6.2238265292487736	-13.85985431028004
O	-27.94365539469693	7.339871875938835	-14.289309066612889
O	-29.13002125722485	6.517629234085748	-14.904362877762228
O	-28.68230804105045	8.264799726785355	-13.403791777801331
O	-26.402440465784863	7.544156888763943	-12.305783500993586
O	-27.677476322390365	8.075175806283886	-12.267392037443754
O	-28.607750065003373	6.824776064122824	-11.956633049438414
