100

O	-0.2661242753797097	2.890597459318841	1.8374790987018845
O	-1.1039130963797097	-5.95833487068116	-4.046441471298115
O	0.5729704516202904	3.956558919318841	2.2952974587018846
O	-1.8806576083797095	-4.05131218068116	-3.0697542212981155
O	-3.0514428583797097	-4.113943260681159	-3.8200037612981155
O	-3.2583025183797094	-5.180904500681159	-4.649527801298115
O	1.7157926816202904	4.662178029318841	2.5281602887018844
O	-2.2522935483797095	-6.0596758706811595	-4.7605164212981155
O	-1.3919219543797097	2.089867688318841	2.0134437787018844
O	0.17319554962029038	2.4161395293188406	0.7958974387018846
O	-3.1334545483797096	-2.416942170681159	-2.5440164412981154
O	0.5307341316202904	-1.0261296906811594	-2.8783118112981154
O	-0.8713685253797097	-4.93005271068116	-3.2335197012981154
O	2.4279105716202904	5.16483422931884	1.3823406187018845
O	1.5885343016202906	6.05905462931884	3.0538494087018844
O	2.7133443016202903	4.316080059318841	3.5646822687018846
O	-0.02530274137970967	5.13681059931884	1.5818298087018845
O	-2.5538075483797096	1.2285380366188408	1.2246156087018845
O	-3.5072658383797095	1.8607220623188407	0.2939586987018846
O	-3.5781778183797095	0.7212075233188407	2.2440404787018844
O	-2.1830623283797097	-0.2315827306811593	0.5035193387018847
O	-1.3565299293797097	-0.8899659206811594	1.3762690487018845
O	-0.3505345193797097	-1.6467698206811594	0.5137285387018845
O	0.24666799462029032	-0.6836070706811592	-0.5059495152981154
O	1.5873721216202905	-1.0004347206811595	-0.6176984122981154
O	-0.39976870937970965	-1.0831661406811595	-1.8279774432981153
O	-0.8390340033797097	-2.475068550681159	-1.4943572582981153
O	-1.1442277323797096	-2.554985570681159	-0.16195929629811545
O	-1.9167842783797098	-2.9582507006811594	-2.3168249712981153
O	-3.9112677883797096	-3.3224073606811593	-3.1887600812981156
O	-4.4200077283797095	-5.29096292068116	-5.432795711298115
O	5.44630922162029	-4.87611117068116	8.843090898701885
O	2.5040390016202903	-4.33183315068116	6.430640288701885
O	1.8254637516202905	-0.5263631106811593	5.913283938701885
O	-1.78337841837971	0.01308744931884065	4.9659442187018845
O	-4.32095345837971	2.886428739318841	4.786304918701885
O	-6.95236740837971	0.38747711531884077	5.829294138701885
O	-10.07944555837971	-0.4202936006811593	3.8434673387018843
O	-8.55027356837971	-3.8486041406811595	3.5220546287018846
O	-9.34459397837971	-6.12678272068116	0.6507361687018846
O	-7.77329622837971	-9.28749843068116	-0.7972409474981154
O	-4.87444637837971	-7.33387542068116	-2.2476749412981154
O	-3.8125247483797096	-6.11616931068116	1.1714812087018847
O	-4.36246643837971	-9.63409943068116	2.5650574287018846
O	-1.8319648583797097	-11.07820633068116	0.09197882570188465
O	0.8463225916202902	-8.94836183068116	1.7741248987018845
O	-0.4552058493797097	-10.02656773068116	5.205077028701885
O	-0.22049236137970968	-4.196264830681159	10.105365048701884
O	-0.3101342983797097	-0.4534461406811592	10.329833248701885
O	-3.5055669583797098	1.3828905093188406	9.499370348701884
O	-2.9249168183797094	5.103375419318841	8.921849928701885
O	-3.9721004983797097	7.64150494931884	6.405834518701885
O	-1.2868192293797098	10.08141163931884	5.973039328701885
O	0.6941588516202902	12.24081996931884	0.7934774987018846
O	-2.61173484837971	13.81871896931884	-0.14833341029811542
O	-10.29682211837971	7.94168315931884	1.3461873687018846
O	-12.77313048837971	5.178193219318841	2.4721920987018846
O	-2.5156473383797096	-3.751874510681159	14.489123848701885
O	-0.9127595893797097	-0.3213877206811593	14.820852448701885
O	-3.4706094883797096	2.4906555793188407	14.489946148701884
O	2.2362326116202906	9.33183716931884	-10.307973871298115
O	4.64961176162029	16.13861486931884	-3.0146864012981154
O	2.9043173516202905	12.71595276931884	-2.9093848012981156
O	5.95310662162029	10.50032157931884	-2.5919650412981152
O	7.626446961620291	12.80386666931884	-0.04883042529811543
O	4.55787272162029	12.06905256931884	2.1102121287018845
O	4.80321255162029	8.33760596931884	1.4944331387018845
O	8.53187663162029	8.03841903931884	2.2173830687018845
O	6.87940774162029	4.882908109318841	5.816687798701885
O	6.65909438162029	3.5308903893188406	10.569597048701885
O	9.96660341162029	1.7249223513188408	9.992228448701885
O	8.43050100162029	-4.63730775068116	5.200886908701885
O	5.86117559162029	-5.66795885068116	2.5982842587018844
O	4.65728156162029	-3.6630418306811596	-0.4160824832981154
O	2.3607737116202903	-4.585901610681159	-3.3552290012981154
O	3.65782090162029	-4.408679280681159	-6.972732581298115
O	0.2241326666202903	-2.7424416906811593	-7.4508720512981155
O	1.8720222316202904	0.4958344483188407	-6.427077071298115
O	5.07991625162029	-0.2166050706811593	-8.303116631298115
O	6.54625908162029	3.2794320993188406	-8.175318161298115
O	5.82406301162029	3.4582625493188406	-4.358651631298115
O	7.63487776162029	0.0903628593188408	-4.072097631298115
O	10.73548931162029	2.4858058293188408	-0.8484104885281154
O	11.72106551162029	-4.80397672068116	1.3268981487018845
O	9.48923261162029	-7.58387205068116	-0.08584618029811542
O	7.39654945162029	-6.837694940681159	-3.1765995012981154
O	4.18481726162029	-8.85799213068116	-3.4129825412981156
O	2.5057037616202904	-9.65311753068116	-6.786188341298115
O	-0.6562242711797097	-7.7061058206811595	-7.761427791298115
O	-3.8922895883797097	-9.43899983068116	-6.661019581298115
O	-6.19816568837971	-5.039434160681159	-10.316153291298114
O	-7.93406930837971	-5.027253680681159	-6.9337748112981155
O	-8.17881491837971	-1.527006970681159	-5.521968011298115
O	-10.49991820837971	0.2343621963188407	-3.0792700312981154
O	-10.92146858837971	2.916121219318841	-5.791239081298115
O	-12.69239238837971	0.2117191773188407	-7.853000471298115
O	-0.5934448163797097	2.556794859318841	-17.008084351298116
O	-3.40840773837971	2.146101184318841	-12.102711951298115
O	-1.8891530783797097	-1.0580720506811594	-13.350202051298115
O	1.5402416716202905	-2.3822330706811594	-14.280073151298115
