31

O	4.035763263702393	-0.3419864773750305	0.423919141292572
O	-6.113053798675537	0.46603864431381226	-0.5310642719268799
O	4.404253959655762	-0.06636910885572433	1.913120150566101
O	-3.9387130737304688	0.13138747215270996	0.34053128957748413
O	-4.155399799346924	1.2581838369369507	1.1047852039337158
O	-5.31579065322876	1.977766752243042	1.06019926071167
O	5.845872402191162	0.6653119325637817	1.6415151357650757
O	-6.310498237609863	1.5684021711349487	0.22403739392757416
O	3.1597650051116943	0.4568749964237213	-0.2850266695022583
O	4.543574333190918	-1.311570167541504	-0.1374787539243698
O	-2.1443490982055664	0.4101441502571106	1.500150203704834
O	-2.77502703666687	-2.6531052589416504	-2.101621389389038
O	-4.95744514465332	-0.2355978786945343	-0.47659215331077576
O	5.638467311859131	1.8612546920776367	0.8177646994590759
O	6.27535343170166	0.9796135425567627	3.0635628700256348
O	6.713914394378662	-0.4098588824272156	1.0299007892608643
O	3.626333236694336	1.2811200618743896	2.12058424949646
O	2.7325289249420166	0.15966913104057312	-1.9220075607299805
O	3.4681103229522705	-0.99210125207901	-2.509173631668091
O	2.8690266609191895	1.399356722831726	-2.687284469604492
O	1.1208031177520752	-0.3595786392688751	-1.7541906833648682
O	1.0667922496795654	-1.7157390117645264	-1.5579407215118408
O	-0.47456637024879456	-2.173835515975952	-1.4229942560195923
O	-1.1408268213272095	-0.850232720375061	-2.238403081893921
O	-1.3154726028442383	-1.5320857763290405	-3.562021493911743
O	-2.6610987186431885	-1.2285232543945312	-1.6732064485549927
O	-2.190072774887085	-1.6538280248641968	-0.0670347586274147
O	-0.7308058738708496	-1.2966623306274414	-0.18886110186576843
O	-2.7033557891845703	-0.35602691769599915	0.6100720763206482
O	-3.0367023944854736	1.405503273010254	1.8085813522338867
O	-5.537380695343018	3.1564738750457764	1.8634350299835205
