31

O	15.978	9.785	5.169
O	12.904	9.174	-4.75
O	15.978	9.36	6.623
O	14.043	9.919	-2.851
O	15.084	10.428	-3.63
O	14.995	10.282	-5.002
O	14.611	9.301	7.327
O	13.895	9.654	-5.52
O	16.041	11.12	4.91
O	15.981	8.922	4.291
O	15.552	10.808	-1.532
O	14.344	7.473	0.001
O	12.963	9.295	-3.42
O	13.675	8.335	6.649
O	14.815	8.799	8.746
O	13.918	10.662	7.431
O	16.739	8.047	6.843
O	16.119	11.777	3.516
O	17.397	11.51	2.935
O	15.81	13.183	3.589
O	15.066	11.155	2.435
O	13.662	11.308	2.687
O	12.945	10.386	1.726
O	13.511	8.974	1.797
O	12.446	8.041	1.813
O	14.285	8.821	0.498
O	13.516	9.763	-0.427
O	13.186	10.871	0.392
O	14.364	10.159	-1.578
O	16.007	10.983	-2.804
O	15.996	10.738	-5.804
