14

O	30.606832192693506	66.51427608170964	10.031922939125437
O	32.01805296829323	66.35098821675645	9.56110561836273
O	29.518419065975706	66.45187017341692	9.275804561181785
O	32.15076973972487	66.10934454005434	8.111007206887669
O	30.91918172205711	66.3930659129712	7.3236781643389675
O	29.630001690395524	65.93555688440081	7.911048715844625
O	28.543256200882492	66.59027383222765	7.134944677251049
O	28.95140495230354	66.90150193853329	11.399956166736382
O	28.495762768158606	66.78804529129536	10.115789653632618
O	30.202228948247605	66.3844528866135	11.31697752881924
O	33.18568117970262	66.61810873704401	7.394872717075249
O	32.402877720360976	65.11185759794827	10.110130276932999
O	31.27105799804792	65.92926992107154	6.0776274703033835
O	27.753436480225854	65.79507851473831	6.344608241487572
