9

O	-21.8842830657959	-16.01592254638672	45.53204345703125
O	-23.25409507751465	-15.697888374328613	45.892093658447266
O	-24.2271671295166	-16.20526885986328	44.811767578125
O	-23.626522064208984	-17.233131408691406	44.00147247314453
O	-24.606374740600586	-14.962493896484375	43.96381378173828
O	-24.43352699279785	-15.295207977294922	42.54176712036133
O	-23.659276962280273	-13.857317924499512	44.429115295410156
O	-23.56097984313965	-14.1915283203125	45.91873550415039
O	-22.55223274230957	-13.445555686950684	46.59514617919922
