78

O	-0.592069297043478	1.7952679333855088	1.0149709803913045
O	-1.027134015043478	0.6520698819855089	0.3734038783913044
O	-1.834543248043478	1.0470104073855089	-0.8924272016086956
O	-2.764633416043478	1.7671155533855087	-0.10081234860869562
O	-2.437158166043478	-0.2397155636144912	-1.1789334886086957
O	-3.376055476043478	-0.6506370266144912	-2.1589730086086956
O	-3.199305446043478	-0.49329368661449124	0.04094642709130438
O	-2.083835324043478	-0.11893487861449115	1.0302781763913045
O	-2.438210486043478	0.6377355185855088	2.1096082013913047
O	-7.141161896043478	-12.286000136614492	-5.008638898608695
O	-8.219704606043479	-9.18917092661449	-3.1033602786086956
O	-5.711996936043478	-6.844798326614491	-1.3931524586086956
O	-7.294163006043478	-5.8310733966144905	1.9599562513913042
O	-5.336449746043478	-3.194154226614491	3.8899178313913048
O	-5.905219016043478	-3.413304026614491	7.6932133713913045
O	-6.103903306043478	0.3760669713855088	7.773749351391305
O	-4.911048156043478	2.9258983433855086	5.159284831391305
O	-7.500816736043478	5.521497083385509	3.9565657013913045
O	-10.049425696043476	4.0887453933855085	6.390104231391304
O	-9.525876386043477	2.3609277933855086	9.711254891391304
O	-12.917615626043478	-1.0701356766144912	5.886484731391304
O	-17.77877402604348	-1.137943596614491	4.288605391391305
O	-15.824122426043477	-3.643534996614491	2.1926612913913046
O	-6.513694656043478	-14.70952413661449	1.2883325913913044
O	-3.5911409660434783	-13.03815803661449	3.1098822813913047
O	1.148222093956522	-8.31305699661449	5.2874485613913045
O	3.8431854139565216	-6.436658166614491	7.203052151391304
O	6.1918787039565215	-3.6930869766144907	6.284002641391305
O	3.8226877039565217	-10.143840436614491	-0.20406687260869563
O	2.5197094939565217	-8.02796442661449	-3.0604532086086955
O	2.5331745239565224	-4.553413266614491	-1.4300537186086957
O	5.397040283956522	-3.8708623866144913	1.1152777913913043
O	7.553608103956521	-1.0420002766144911	-0.2346322216086956
O	10.703692973956523	-3.036681026614491	-0.9600621586086957
O	11.611903073956523	-6.4192962766144905	0.4868090803913043
O	7.745991573956522	-4.185401566614491	-5.094917888608696
O	11.310255373956522	-4.165755366614491	-6.292481978608696
O	13.065423473956523	-1.4097539966144912	-8.217301268608697
O	4.933312933956522	-2.357497226614491	-12.262251138608697
O	1.884499133956522	-3.349300866614491	-10.158188638608696
O	-0.07953447604347796	-6.358203256614491	-8.953360628608696
O	-3.330229726043478	-4.980309366614491	-10.527932238608697
O	-4.912906956043478	-6.761153066614491	-13.489035738608697
O	-3.4201717560434783	-4.404098266614491	-16.135452438608695
O	0.10537985395652205	-5.321760776614491	-14.874469438608696
O	-7.137173246043478	-9.000178336614491	-8.373999898608696
O	-6.641506806043478	-5.537014516614491	-6.952958528608695
O	-7.399329996043479	-3.5684529266144907	-3.7857189686086956
O	-10.615238366043478	-4.624049046614491	-2.0229153186086952
O	12.458345073956522	0.6137949877855089	-3.9651950186086955
O	11.554639173956522	2.964228723385509	-6.780436088608695
O	8.367593433956523	2.3118159333855086	-8.807096678608696
O	12.460043573956522	6.344988133385509	-4.409173738608695
O	10.337159773956524	5.296151813385509	-1.4573784086086956
O	3.1697082639565215	-4.096746976614491	11.518948061391304
O	0.9202829639565222	-3.570172846614491	8.496062001391303
O	2.605419403956522	-1.772943886614491	5.5768851813913045
O	0.45536196395652206	1.328581104385509	6.281122601391305
O	0.865882883956522	1.202409566385509	10.075300631391304
O	5.3332721239565215	2.9461880933855085	7.718871241391304
O	3.493840303956522	6.168319823385509	8.501313851391304
O	1.5282784539565222	6.003332103385509	5.2158995413913045
O	-2.0657995090434778	6.065610253385509	6.552858771391304
O	-4.544445946043478	8.930573743385509	6.8202212113913045
O	-6.179731476043478	5.960101093385509	10.880740261391304
O	-2.863468156043478	6.820176253385509	12.544115561391303
O	7.952581193956521	14.50167556338551	-1.3008366086086955
O	5.0947702039565215	12.99026676338551	0.7416324803913044
O	4.536448333956522	10.16531310338551	3.2003550513913046
O	6.142557193956522	7.617515523385509	0.8386168253913043
O	8.605349303956523	9.499526503385509	-1.3218514186086956
O	0.4136995339565219	14.45313136338551	-1.3900548186086956
O	2.8724048739565218	12.29009826338551	-3.3185723386086954
O	0.5058738939565219	10.634094463385509	-5.7647813986086955
O	0.344085913956522	7.095344023385509	-4.261553668608696
O	-3.308971846043478	7.355247193385509	-3.1813250686086954
O	-3.010814536043478	8.575118473385508	0.4239144963913044
O	-4.553126566043478	11.950711563385509	-0.5698015646086957
