79

O	4.487277827149254	-1.013904523417911	-0.9177115772985076
O	3.597600797149254	-0.09758449941791092	-0.13898085129850768
O	3.5942375871492542	1.499600656582089	-0.9347560172985077
O	2.175738527149254	-0.6087353434179108	0.4398162567014923
O	2.1920545071492543	-1.887647833417911	1.1794219377014923
O	1.9496147771492542	-3.218681193417911	0.7581093767014924
O	1.151408177149254	-1.520478523417911	2.1332617327014924
O	1.0482361271492542	-0.5334057944179109	3.0067054727014924
O	-0.003784107850745899	-1.272335123417911	1.2407440617014924
O	-1.205340442850746	-1.050897263417911	1.7634709727014923
O	0.8542354371492542	-0.1302228454179109	0.6046218197014923
O	0.20598350714925417	0.6753208725820892	1.5781967527014924
O	-4.128634862850745	-14.81559055341791	-2.8708048272985076
O	-3.2676279928507457	-12.94641015341791	0.31160062470149236
O	-3.2406224828507457	-9.12872233341791	0.42195980770149233
O	-4.717163362850746	-8.10952186341791	3.822095112701492
O	-4.591306842850746	-4.371936803417911	4.632915132701492
O	-7.4140165928507455	-3.266190193417911	7.028853032701492
O	-4.843822292850746	-1.136956723417911	8.881832642701493
O	-1.3868295038507459	-0.0023359564179109005	7.779198302701492
O	1.585354907149254	-0.7860867034179109	10.118003272701493
O	-0.8248815748507459	-2.3695222234179107	12.544891542701492
O	-4.457316912850746	-1.504647803417911	13.231903142701492
O	-3.6483935328507457	-7.461354303417911	12.065772642701493
O	-2.305278362850746	-12.44435885341791	10.986299942701493
O	-9.868646772850745	-2.395513823417911	-1.4620479772985076
O	-10.271489492850748	1.369141056582089	-1.5398693872985076
O	-8.040787852850745	4.201275956582089	-2.539454347298508
O	-7.440416612850746	-4.021794753417911	-7.109343987298508
O	-3.758147672850746	-4.843923973417911	-6.7920065672985075
O	-2.495875592850746	-2.165774673417911	-4.324215857298507
O	-4.247211372850746	1.2492450645820892	-4.743135357298508
O	-1.552954666850746	3.7544670565820892	-5.809549407298507
O	-2.8501941228507457	4.483444126582089	-9.307839837298507
O	-6.2892558428507455	3.775315076582089	-10.718417357298508
O	-0.3481405048507459	-0.009563700417910881	-9.971330757298507
O	0.05962784914925412	1.925849736582089	-13.134514657298507
O	3.075866017149254	3.948474116582089	-14.256416257298508
O	6.4074952871492545	-3.924894053417911	-11.101003557298506
O	4.574300477149254	-5.713159913417911	-8.274210177298507
O	1.846955877149254	-8.24149467341791	-7.550417887298508
O	4.294406127149254	-10.28679075341791	-5.462556527298508
O	5.456254147149254	-13.68653495341791	-6.657071417298508
O	8.822410177149255	-12.44628545341791	-8.077729947298508
O	6.848397177149254	-10.07351165341791	-10.336168557298507
O	0.5685396371492542	-14.36298525341791	-3.270446917298508
O	1.7836896171492542	-11.32298305341791	-1.3911484672985077
O	0.982510927149254	-9.29254198341791	1.7465527627014923
O	-0.5570364578507458	-11.32784835341791	4.567923582701492
O	1.550584427149254	6.564663346582089	-10.610117457298507
O	5.3117267671492545	6.068635596582089	-10.480513957298507
O	6.686406017149254	2.652119196582089	-9.586375567298507
O	5.726214177149254	9.71064269658209	-8.346727527298507
O	3.142804497149254	8.89490402658209	-5.718641637298508
O	-11.736533392850745	4.189348026582089	2.273978492701492
O	-8.941321272850747	1.631511036582089	2.505074792701492
O	-5.831702612850746	2.550902266582089	0.5089622407014923
O	-3.916073622850746	3.199108326582089	3.7855938927014923
O	-6.8146193428507456	5.063682136582089	5.450145112701493
O	-7.875120722850746	8.163291006582089	3.5494656227014922
O	-4.494440392850746	8.12037503658209	1.7685233027014924
O	-2.624361202850746	9.07797665658209	4.969621762701492
O	-0.13450693085074594	6.228973066582089	4.486255602701492
O	-0.6132499918507459	4.3794746165820895	7.791209272701492
O	1.497202707149254	4.421375536582089	10.921524242701492
O	-3.181531602850746	3.398983206582089	13.037579642701493
O	-4.199902412850745	6.898404736582089	11.933861342701492
O	9.543256607149253	12.63582394658209	0.15157121370149235
O	7.458765667149254	10.662362646582089	2.593174592701492
O	3.8215219771492537	9.69581086658209	3.070929782701492
O	3.5549598171492542	8.33760941658209	-0.4901415082985076
O	6.124672587149254	10.20268975658209	-2.5609258172985077
O	10.610644607149254	7.479138386582089	5.397494032701492
O	10.167852307149253	7.063595256582089	1.6025425727014924
O	11.210161007149253	3.433954406582089	1.4071880727014925
O	7.868070367149254	1.791200376582089	0.6701532167014923
O	7.5776762271492535	-0.09011447241791093	3.961210082701492
O	5.7950095071492544	2.389673166582089	6.222868652701492
O	8.956077287149252	2.935909026582089	8.294414422701493
