21

O	36.394465746506626	-1.8251188111304664	12.113007195090121
O	35.205053509391846	-1.8263693795235516	11.447812540001065
O	34.454168054692126	-2.928645950619057	11.601512439806891
O	34.76457672269749	-3.9423131300227854	12.429956744518535
O	35.946624140385595	-3.9423611312013627	13.117299776930139
O	36.718551899791514	-2.7948561170057515	13.00611570260198
O	34.81309618735074	-0.8035633908717177	10.795135320666985
O	34.03720793922942	-4.951578483314719	12.499495268556545
O	37.10749515736538	-0.5897019733430521	12.051221933466486
O	36.576315417437	0.5114089553278591	12.909997750060608
O	36.54744002725151	1.6708377584511338	12.109051771763973
O	37.72132577131596	0.7292312317474137	13.858877752914662
O	38.84501002654888	0.23662473359995279	13.012870845868862
O	37.75155109726787	2.0950355671610996	14.154145318949384
O	38.45191971614257	-0.5828429034480569	11.986728809855475
O	39.59878177736007	-0.7462862794062302	13.945950219146422
O	40.81508163835835	-0.13317635509378917	13.778562148488135
O	40.90354028890657	1.2072925448699645	14.738002877581904
O	40.724096107640236	2.7193113351038907	14.0682416437363
O	40.00476675838694	0.9309564966194261	16.119453233093065
O	42.33970749593135	1.2040666778068898	15.247483566292015
