26

O	44.843357170405596	30.077613356140255	33.88496541874953
O	37.967443810427305	24.758358111321243	34.90782322331624
O	36.83731179199183	25.664861370645653	35.47250762311361
O	38.17130813783479	26.194884833089247	35.15364628652967
O	43.52107308400768	28.903087699412932	33.80485393302601
O	44.08138549514506	29.50034879561542	32.70810547620324
O	42.0846359429523	28.412887599274125	33.68854594145169
O	42.146574563406254	29.052404783595886	32.40836601459069
O	43.07858403930815	29.71601665333542	31.970954223512457
O	42.84565934396215	31.036157027831678	31.467843638785503
O	43.02378013067443	32.09237344591683	32.19982312927371
O	42.08974729263473	32.99974854804785	32.57532294344645
O	41.91218415586269	31.05475685512211	30.50022845776334
O	41.25231530937142	32.18590063588629	30.714297791022073
O	40.42408827677206	32.3644977985633	29.438655231930092
O	40.935985391473714	32.42332471184748	32.01866237613991
O	40.11369865345141	31.33910904557051	32.38093481766114
O	39.89804370256298	30.54547180163033	33.483885187330664
O	39.13798488889078	29.430231821055877	33.289954820935606
O	38.89723317142458	28.401412348415985	34.30996585002322
O	39.58298085910121	28.569744118653915	35.33751447600387
O	38.357168439610525	27.1284096929176	34.0321440756996
O	38.95883239899396	29.058477068465365	32.00283413931465
O	38.7926244431408	30.052634261078413	31.04313974376207
O	39.02349832394458	31.322050481065137	31.48177903006516
O	38.72204901253925	32.44591725642006	30.59075881267309
