92

O	-3.257844648816667	-0.9932852408590911	-0.9173033149060605
O	1.1637445411833331	4.745439599140909	-5.830091243106061
O	1.8346838511833328	5.712683249140909	-4.81417039310606
O	0.9976161611833331	4.585723879140909	-4.376650183106061
O	-2.2609793088166668	-0.083695380859091	-2.0632829631060607
O	-2.013856698816667	-1.378302920859091	-1.6938919431060606
O	-1.083497560816667	0.7537009901409091	-2.5423230431060606
O	-0.323428631816667	-0.39785215085909087	-2.1577455431060604
O	-0.754100828916667	-1.4023593408590909	-1.6047191281060607
O	-0.14261852681666698	-1.8763105708590908	-0.39989366010606053
O	-0.609149305816667	-1.5750820008590911	0.7725927968939393
O	0.01417766718333302	-0.873387320859091	1.7502609868939394
O	1.176288511183333	-2.091388260859091	-0.5489803171060605
O	1.694856961183333	-1.715694230859091	0.6132070968939395
O	3.124420021183333	-2.262283080859091	0.5611399368939395
O	1.212216161183333	-0.536974560859091	1.0984694768939391
O	1.5568072511833329	0.4115896621409091	0.11642909689393954
O	1.0088648211833329	1.539120330140909	-0.45040450910606056
O	1.624759141183333	2.016634830140909	-1.5692041741060607
O	1.1222512311833328	3.1316972491409087	-2.3822078631060606
O	-0.013493088816666998	3.510284179140909	-2.0340722131060605
O	1.5941943011833328	3.438448449140909	-3.675484343106061
O	2.483516431183333	1.166425369140909	-2.1747259731060606
O	3.275475911183333	0.34534507214090904	-1.3774717671060606
O	2.958595261183333	0.34907341114090906	-0.0520671251060606
O	3.832297051183333	-0.35883752085909104	0.8878118768939395
O	12.509352451183334	-7.141849660859092	8.363634866893939
O	0.740028001183333	-11.22630608085909	-0.29497572710606057
O	-2.178056098816667	-10.051991880859092	-2.5569767931060605
O	-2.230054098816667	-13.048235580859092	-4.926581893106061
O	-0.194338270816667	-10.960617780859092	-7.43003239310606
O	-2.894912548816667	-8.189431270859092	-7.242090103106061
O	-0.791531216916667	-5.632723210859091	-5.489898923106061
O	2.342507121183333	-5.967256750859091	-7.645939253106061
O	5.422564071183333	-7.513170890859091	-6.010169573106061
O	4.456021701183333	-7.209333730859091	-2.3551861731060604
O	5.391999731183334	-9.064436080859092	0.7976470768939395
O	4.078710301183333	-8.98627288085909	4.355919696893939
O	6.829596981183333	-8.82328498085909	6.990431556893939
O	4.416107291183334	-4.196388670859091	7.506545436893939
O	3.893257461183333	-4.432520180859091	3.7765718768939394
O	6.989860071183333	-4.227745760859091	1.5194651568939395
O	6.607309621183333	-3.3349739608590907	-2.1737478031060604
O	9.667336751183333	-4.015204250859091	-4.385138463106061
O	9.532126351183333	-1.888165870859091	-7.556208743106061
O	10.153726451183333	-3.925373590859091	-10.71611700310606
O	12.014710751183333	0.9995846951409091	-12.021723073106061
O	8.767495471183333	5.503952859140909	-9.67516153310606
O	5.966767631183333	9.961249719140909	-8.44589522310606
O	4.850954201183334	6.928780129140909	-6.161048703106061
O	7.840578071183334	7.871693519140909	-3.8616862731060606
O	3.402110341183333	10.766677589140908	-3.0172481531060606
O	4.2193399611833335	8.28084579914091	-0.2328547651060605
O	1.306025081183333	11.76605591914091	3.1342419768939394
O	1.123373791183333	11.91700171914091	6.915268556893939
O	-3.902359518816667	7.647789609140909	4.33550873689394
O	-1.145092684816667	5.12111270914091	3.585542266893939
O	2.229550841183333	6.746459219140909	4.475443536893939
O	5.864835561183333	5.700310649140909	4.22941316689394
O	7.424874181183334	3.825397269140909	7.170549906893939
O	10.693595051183333	3.196038489140909	5.2793687368939395
O	11.623432751183334	-0.9566965008590911	-1.7410940161060604
O	8.711685151183334	0.873422316140909	-0.07797906710606062
O	7.549525551183333	0.0026979091409089495	3.421419556893939
O	4.142263261183333	0.8384790851409091	4.928396516893939
O	1.6800946911833328	-0.47811632085909106	7.657091496893939
O	-0.01776821181666699	-3.795561690859091	6.86796732689394
O	-3.776310818816667	-3.237803430859091	7.5798653168939385
O	-4.705095418816667	-6.839125560859091	6.74907974689394
O	-7.563106008816667	-6.625961420859091	4.323062656893939
O	-9.344566878816666	-4.374289500859091	1.9604215368939393
O	-7.1587940588166665	9.84814838914091	-6.127173643106061
O	-9.456836398816666	5.503920039140909	-8.785297303106061
O	-11.067628048816667	5.185854179140909	-5.356113633106061
O	-12.799574448816667	1.794603948140909	-4.88172287310606
O	-13.254787248816667	-0.9162887808590909	-2.1456320131060607
O	-10.076252878816666	-2.727235440859091	-3.1678053731060607
O	-7.9821076088166665	0.39256282014090904	-2.3263532631060606
O	-9.364857248816667	0.972226155140909	1.1470432668939394
O	-7.167384118816667	-1.000207150859091	3.6108979868939395
O	-8.832677958816667	-1.9417763208590908	6.847151256893939
O	-7.692992078816666	-3.579630660859091	10.03814332689394
O	-12.401014148816667	-1.2660043408590909	11.13414032689394
O	-9.713464788816667	1.415641520840909	11.076819226893939
O	-9.102819078816667	2.557676039140909	7.529307436893939
O	-6.2561410688166665	3.902444119140909	5.310054566893939
O	-6.596689348816667	4.983429789140909	1.6556114768939394
O	-4.153376278816667	3.773365689140909	-0.8155981851060605
O	-3.081288788816667	4.257714329140909	-4.473288103106061
O	-4.032838928816667	7.903441739140909	-4.79283167310606
O	-2.427291208816667	9.96346073914091	-7.5718016731060604
O	-1.079709187816667	7.1719414891409095	-9.81065419310606
