37

O	40.89065799058221	30.880967194817178	36.55791979229482
O	40.23911174920921	30.7205279143456	35.56111801420324
O	40.676056390418594	29.432786456858043	34.94785991873185
O	39.620727012275786	28.682573511374912	35.050433131469006
O	39.89103682433913	28.27177912208956	36.460505713784
O	39.6102941918982	27.287381020999	37.38619256208206
O	38.379324699605306	26.769032413418415	36.85421593441472
O	37.84322490277666	27.142927931723552	35.59264417360563
O	38.77437279849487	27.667679878745435	34.67666421174641
O	39.46910730025114	27.480241034459254	38.85299519364346
O	39.32699292150385	26.362808097152477	39.81654060035105
O	40.559315958568774	25.57197230222121	40.03606601683521
O	41.61505082943336	26.514042417274823	40.247261538941615
O	40.86534304706108	27.49411089015426	40.95099194666886
O	39.99098775285869	28.334096293615676	39.95355079496258
O	39.84876470910436	31.530272336383685	34.3815164997701
O	38.8192053120076	31.032690263908748	33.55911807061238
O	38.76774347047247	31.130667385809353	32.15969144351554
O	39.952835546585426	31.45145021369834	31.60889845692317
O	40.06704664519846	31.789923169015495	30.177961741468017
O	40.7743237320148	32.143588035793485	32.42686784163181
O	41.00340078099425	31.761857886670718	33.75858366965352
O	41.819064909984846	33.09398905842579	31.981768444322014
O	42.283502141897905	32.885493387680995	30.72467485387711
O	43.54693434242514	32.30102681138249	30.736423848864128
O	44.07528948729699	31.79166964189895	32.02154890132545
O	44.07224497017018	32.77671629486257	33.040846527905586
O	44.2603202385212	31.88601346618139	34.12628777861694
O	42.81191165372001	33.480348046637175	32.80930965528263
O	43.69424837215081	30.48233003361284	32.71507699746235
O	44.105733461347896	30.654348349584236	33.78486185122828
O	45.19348836797154	30.653351000091664	31.5433847809977
O	46.266071044536034	30.640636334248256	30.693981733147112
O	47.779403910671384	31.053576056695157	30.84435790067333
O	48.314866297223986	32.44697708204722	30.803639776687646
O	46.9202057732929	32.777131639423594	30.823182075212582
O	45.68258047791718	31.867546566062906	30.54708888690683
