28

O	43.484494298033496	40.34350029055108	30.835804545456483
O	42.48329805485419	39.497721790593275	30.242401579033057
O	42.52804951179212	38.13225684679074	30.687329929322477
O	41.16846234489249	37.45818250620388	30.473452097454924
O	40.23295378243507	37.73838885287665	31.660207729703146
O	40.53997922474241	39.19061960245291	31.750275895187297
O	41.13363097336836	39.89474671979605	30.52106522330795
O	39.014500549093675	36.97249299547808	31.802887473466175
O	38.161282011213736	36.57035386448895	30.777908016666508
O	38.78455860206521	36.526759645048166	29.610755403231632
O	38.20981071468215	35.7967838910985	28.7004471804583
O	37.72796893831565	34.62925635046304	29.215394487345897
O	37.138371427452654	34.518067188347935	30.440200224833937
O	36.378080025296455	33.60246986573063	30.807234064720262
O	37.13279928228998	35.67318096679912	31.099110643619913
O	36.55255164503903	35.54641298791556	32.36170477880499
O	35.99764817232056	34.342930637981475	32.84796658325587
O	37.31633774840657	35.902042509904746	33.41696406941926
O	38.50927499615794	36.339181345503334	32.98304986018789
O	38.95245568261747	36.790845793845016	34.18520801403709
O	38.88130994522721	35.70020079909123	27.44303755481083
O	39.84518249809385	36.66112955307768	27.160139410709355
O	39.38430066894188	38.279925895697374	27.70313681819357
O	40.52888582056751	36.592117172312705	25.98103960495988
O	40.05862831793485	35.65832221328099	25.050709975324327
O	39.714000629517685	34.46851669203097	25.682539962211354
O	39.16417925452595	34.4702174041899	26.919516777970024
O	41.59177344617245	39.322090783785455	32.691673605502594
