17

O	-0.43117037415504456	-2.8886265754699707	-1.492994785308838
O	-1.078023076057434	-1.8025271892547607	-0.6377646923065186
O	-1.7556605339050293	-2.570380210876465	0.4411505162715912
O	-1.9574223756790161	-0.8046069145202637	-1.5926477909088135
O	-2.60044264793396	0.3814012408256531	-0.8056323528289795
O	-3.5012359619140625	0.8599913716316223	-2.1598315238952637
O	-1.476149320602417	1.4560344219207764	-0.9850349426269531
O	-1.4729281663894653	2.692396640777588	-0.4570169746875763
O	-0.5282583832740784	1.1267638206481934	-1.6656688451766968
O	0.2502136528491974	-0.9345311522483826	0.08716597408056259
O	0.051773808896541595	-0.1887650340795517	1.2510027885437012
O	1.099835991859436	0.48033639788627625	1.8336522579193115
O	2.371371269226074	0.4407879412174225	1.2973088026046753
O	2.5988526344299316	-0.2850792706012726	0.1516370326280594
O	1.5379339456558228	-0.9425198435783386	-0.4092472195625305
O	3.4586174488067627	1.0991111993789673	1.8495070934295654
O	3.432692289352417	1.8802131414413452	3.0002353191375732
