17

O	-1.081	-6.697	-4.009
O	-0.861	-5.585	-4.879
O	0.344	-5.666	-5.663
O	-0.858	-4.281	-3.932
O	-0.533	-2.968	-4.511
O	0.279	-2.144	-3.509
O	-1.786	-2.219	-4.883
O	-1.858	-1.518	-5.873
O	-2.86	-2.33	-4.102
O	-2.071	-5.623	-5.968
O	-3.359	-5.933	-5.537
O	-4.423	-6.005	-6.454
O	-4.201	-5.849	-7.828
O	-2.936	-5.538	-8.293
O	-1.873	-5.42	-7.357
O	-5.291	-5.933	-8.679
O	-5.338	-6.706	-9.869
