25

O	26.619	65.336	8.276
O	27.114	66.307	8.845
O	26.204	67.236	9.593
O	26.717	68.293	10.344
O	25.857	69.165	11.019
O	24.469	68.981	10.958
O	23.558	69.942	11.705
O	23.808	71.364	11.198
O	22.078	69.654	11.43
O	23.861	69.836	13.2
O	23.966	67.921	10.202
O	24.819	67.045	9.527
O	28.596	66.667	8.769
O	29.444	65.589	8.094
O	30.905	65.808	8.286
O	31.381	65.971	9.688
O	32.816	66.49	9.492
O	33.776	65.434	9.702
O	32.91	67.037	8.061
O	33.796	66.207	7.262
O	31.461	67.001	7.576
O	31.219	66.918	6.077
O	31.632	68.129	5.45
O	29.724	66.698	5.797
O	29.197	65.483	6.574
