15

O	-2.6815624237060547	0.24934475123882294	-1.6950265169143677
O	-2.700538396835327	-0.9280461072921753	-0.6465982794761658
O	-2.686150550842285	-0.03535650297999382	0.6633180975914001
O	-2.9960992336273193	1.2751299142837524	0.6551564335823059
O	-1.1097551584243774	-1.2691330909729004	-0.7757190465927124
O	-0.29451748728752136	-0.14664536714553833	-0.4268215596675873
O	-0.48234832286834717	1.1909987926483154	-0.26000919938087463
O	1.062110185623169	-0.33082741498947144	-0.1731416881084442
O	0.6754071712493896	1.789039134979248	0.07308658212423325
O	1.64302659034729	0.8683208227157593	0.1326771378517151
O	1.9201045036315918	-1.431167483329773	-0.16506348550319672
O	2.995293378829956	0.969646692276001	0.43027031421661377
O	3.243328094482422	-1.3652899265289307	0.1199488565325737
O	3.775918483734131	-0.1374690681695938	0.42101263999938965
O	-2.3642165660858154	-0.6985450387001038	1.6469097137451172
