13

O	-2.9377129077911377	-1.8552058935165405	1.1712279319763184
O	-1.6397595405578613	-0.9720866084098816	1.4247994422912598
O	-2.2984681129455566	0.4005947411060333	0.9545891284942627
O	-1.506095051765442	1.485803484916687	1.1964281797409058
O	-3.4048407077789307	0.41771191358566284	0.437261164188385
O	-1.0276240110397339	-1.353918433189392	-0.07045678049325943
O	0.2503620982170105	-0.6203291416168213	-0.06547670811414719
O	1.4181432723999023	-1.205148458480835	0.4415041506290436
O	0.381183385848999	0.6479043364524841	-0.5581734776496887
O	2.601414442062378	-0.5047442317008972	0.4225141704082489
O	1.5644453763961792	1.3549706935882568	-0.5799139738082886
O	2.710618734359741	0.7740985155105591	-0.07948311418294907
O	3.8883328437805176	1.4303491115570068	-0.08154689520597458
