13

O	25.980247368849064	32.63362318037508	18.837051930265183
O	26.672110106194026	31.48006945472641	18.920467961150244
O	26.493044766849344	30.22743311203925	18.29787836607004
O	26.962738439809986	30.063210124843177	17.077011590305595
O	26.70200132497392	29.256488175708455	19.030273832645797
O	28.139507805750174	31.40479772945275	19.089843801544042
O	28.192949245102948	32.06066378827506	20.35156670576313
O	27.716150201585766	33.320860374074854	20.474673521703146
O	28.185997629654505	31.43776958202099	21.52650828213701
O	28.29636128805942	34.13888424958379	21.37044147411381
O	28.44427257140519	32.228069155152475	22.590055272198406
O	29.00686841465149	33.42893597535063	22.281793502055436
O	29.47228959025675	34.09386042850652	23.29783780041024
