91

O	1.143203466768294	-0.03125842102122012	0.5315599438
O	-0.006730964231706049	-0.32711879602121996	1.2963212838000002
O	0.016161287768293953	-1.5195065260212202	2.1154543638000005
O	0.8295893167682938	-1.51925299602122	3.1910778137999998
O	-1.325647384231706	-0.13313207102122004	0.7227740538000003
O	-2.056298593231706	1.08447281697878	1.1412006638
O	-2.311731793231706	2.25927007397878	-0.16463213319999986
O	-1.8216836102317062	1.85390839397878	-1.7858962161999998
O	-1.037162107231706	-2.11691002602122	2.3295986338
O	7.5069518567682945	-6.49773961602122	-8.5524065262
O	4.685499026768293	-4.090068906021219	-9.487935386199998
O	6.122722246768293	-1.3762738960212202	-7.2237626762
O	6.7007590967682935	-4.02907436602122	-4.5333228662
O	3.079910816768294	-5.14804583602122	-5.0422201062
O	2.059705186768294	-1.4996979660212202	-4.7153498262
O	3.736193336768294	-1.2523705360212203	-1.2793247331999997
O	3.285890316768294	-4.82548624602122	0.06388181280000016
O	-0.3559099862317061	-5.0064521460212195	1.1517166638000003
O	-2.790459133231706	-5.17602616602122	4.1052817838
O	-0.4636136992317061	-2.6217040660212203	5.8140832238
O	2.234112466768294	-5.307882006021219	6.1839076537999995
O	0.06819484876829396	-8.10027207602122	7.5139807438
O	-2.7984415432317062	-6.32978320602122	9.3169875738
O	-1.7667806362317062	-2.76909567602122	10.1880851438
O	1.896400466768294	-3.26797402602122	11.1876519438
O	10.341483726768294	7.0240526839787805	-2.0889804661999998
O	8.156808766768293	10.14124523397878	-5.7173343362
O	-5.878139593231706	7.493711513978781	-3.4491885862
O	-9.580520643231706	7.83545021397878	-4.3787390762
O	-10.736752443231707	8.05759265397878	-0.7503368343999999
O	-8.325305153231707	5.2616581639787805	0.22677778980000018
O	-9.624228613231706	2.99673202397878	-2.5913474962
O	-13.171295673231706	3.5296978739787797	-1.3200904891999998
O	-12.469779973231706	1.73859714397878	1.9916480138000001
O	-9.370228633231706	-0.30768846602122013	1.0690448738000002
O	-11.022338073231706	-2.3263272560212203	-1.7258687361999998
O	-11.518042173231706	-4.52399124602122	3.3169991138000006
O	-9.743809753231707	-6.397091346021219	0.49186636380000026
O	-0.28760408823170613	-9.92895835602122	-12.629111156199999
O	2.495988506768294	-8.75310851602122	-10.268209496199999
O	2.653062366768294	5.96164251397878	15.073664543800001
O	2.306546696768294	6.98924134397878	9.9625787438
O	3.030138886768294	3.2934798639787797	9.4282120438
O	6.056388986768294	4.12646944397878	7.2479077538
O	3.886505806768294	6.35538465397878	5.0156988238
O	1.045636876768294	3.8510086739787797	4.7977644938
O	3.312498266768294	0.8580384219787799	4.2706290438
O	5.456752516768294	2.2986335039787797	1.4734388438000001
O	2.519725876768294	3.98924771397878	-0.31119631919999985
O	4.007402876768293	7.42581981397878	0.2826129028000002
O	1.7582939967682942	10.49412916397878	0.02674924380000021
O	-0.828568543231706	8.38038862397878	-1.8249328461999998
O	0.1331562217682939	9.60176543397878	-5.3243146662
O	0.4877042467682938	5.93404900397878	-6.3168276462
O	4.282694736768294	5.55425896397878	-6.4156003262
O	13.201691226768293	2.43336976397878	-5.7031068062
O	14.874848026768294	-2.4267367560212203	-3.9269455362
O	11.089570626768294	-1.9101882060212203	-3.8633545362
O	11.321136726768293	-0.12068072102122007	-0.5012551491999998
O	13.590789226768294	-2.8714761660212202	0.8756215738000002
O	11.364916026768293	-5.69187903602122	-0.42452223419999985
O	8.405590846768293	-4.09526392602122	1.3979891938000002
O	10.275640626768293	-3.86279248602122	4.7131362538
O	6.677537616768293	-6.19205545602122	6.7622406538
O	9.125174286768294	-6.81790676602122	9.626772243800001
O	4.1898958767682934	-9.63801325602122	8.6525237938
O	5.847315566768294	-9.35535745602122	12.050377343800001
O	-6.996393653231706	-14.82631015602122	3.8355617038
O	-4.299515433231706	-11.05944425602122	2.4227104338
O	-6.421702623231706	-10.94829005602122	-0.7428613885999998
O	-3.4010576632317058	-11.03653425602122	-3.0822373662
O	-1.5989995192317061	-8.52821409602122	-0.8455342591999998
O	-4.647694273231706	-6.23559213602122	-1.0364102342
O	-5.316237233231706	-6.71651496602122	-4.7541414662
O	-1.825088296231706	-5.66611260602122	-5.8621536862
O	-2.203081013231706	-2.48816262602122	-3.7334100762
O	-5.7324704632317065	-1.5765091260212203	-4.7889114962
O	-4.848447563231707	-1.6875741060212204	-8.487140566199999
O	-2.1268092032317063	0.80510528471878	-7.5336177962
O	-4.440318763231706	3.29740962397878	-5.7181786862
O	-6.989473933231706	3.35285623397878	-8.533432486199999
O	-4.389510993231706	3.87971391397878	-11.2757111562
O	-3.868668143231706	7.60478583397878	-10.4325843362
O	-7.556364083231706	8.31227693397878	-11.1776736562
O	-14.298979073231706	3.63065157397878	7.2156944938
O	-8.780334793231706	6.2577514839787804	6.9075301338
O	-4.894156733231706	7.446320043978781	4.8299327338
O	-3.420834803231706	9.01510947397878	8.0037214038
O	-0.5967439892317061	11.21620174397878	3.3624005938000003
O	1.7769450167682939	12.92331174397878	5.8248100238
O	4.3365198767682935	13.91956224397878	1.6873918038
