9

O	-1.6261252164840698	1.8054981231689453	-0.1851942539215088
O	-0.8575769662857056	0.7925761938095093	-1.1293684244155884
O	-1.6663908958435059	-0.49613136053085327	-0.7215262651443481
O	-1.2728185653686523	-1.6250534057617188	-1.3592958450317383
O	0.367827832698822	0.5495420694351196	-0.026773124933242798
O	1.2651110887527466	-0.44799160957336426	-0.7773857116699219
O	2.6612601280212402	-0.8105257749557495	0.31668853759765625
O	3.6776251792907715	0.6549872756004333	0.5511748790740967
O	-2.548912525177002	-0.4229015111923218	0.09356094151735306
