9

O	-0.8249460458755493	2.177093505859375	0.20541912317276
O	-0.29177117347717285	0.9296433925628662	-0.5587884187698364
O	-1.4824033975601196	-0.03820984065532684	-0.17965252697467804
O	-2.5297369956970215	0.3080117702484131	0.5769050121307373
O	0.6870856881141663	0.45103663206100464	0.6574951410293579
O	1.3207331895828247	-0.8150447010993958	0.062317755073308945
O	2.2857890129089355	-1.433335781097412	1.0496684312820435
O	2.1713662147521973	-0.39333173632621765	-1.1397110223770142
O	-1.3361164331436157	-1.1858633756637573	-0.6736536026000977
