91

O	1.558013393626756	0.19488608834146404	0.05795532666341463
O	0.7026765136267558	0.15361697434146404	1.1569898136634147
O	1.008153053626756	-0.965867621658536	2.0477582036634145
O	1.986886633626756	-1.835350061658536	1.7135203436634145
O	-0.7351213053732442	0.19750095134146406	0.9666761636634147
O	-1.2006752133732441	1.538122947341464	0.6156698436634147
O	-1.9339934533732441	1.837599969341464	-0.6084461116365854
O	-2.1155858963732443	1.9325088383414641	1.6879322936634145
O	1.164325613626756	-0.5383006416585359	3.1949461936634145
O	3.817224543626756	-7.447534411658536	-10.402034846336585
O	0.6017657236267558	-5.3646963516585355	-10.254073716336585
O	2.591308373626756	-2.314825861658536	-9.193800576336585
O	4.595845553626756	-4.466983511658537	-6.781219506336585
O	1.3238924036267559	-5.759068831658537	-5.321948846336586
O	-0.0034309163732442194	-2.172416371658536	-5.030137686336586
O	3.0842043436267557	-1.511263001658536	-2.8637382063365853
O	3.707605623626756	-4.792462631658536	-1.0435678203365852
O	0.9125376936267559	-4.929674071658535	1.5451633336634147
O	0.04232239362675572	-4.712955811658537	5.192208803663414
O	2.543358623626756	-1.8892139516585358	5.424493533663414
O	5.390924513626755	-4.297563641658536	4.864202293663414
O	4.343694003626755	-6.987114361658536	7.304839683663415
O	2.411160153626756	-5.132961251658536	10.006704553663415
O	3.374407543626756	-1.4547820016585358	9.820820253663415
O	7.144921793626755	-1.6739675916585361	9.163284783663416
O	7.8183685536267555	7.008135088341463	-7.445798816336586
O	3.9122143436267556	9.501554628341465	-9.997887646336585
O	-6.972070476373244	9.979429638341465	0.3013177986634147
O	-7.243509236373244	6.504648568341464	-1.3295952623365852
O	-10.992016256373244	6.333557778341463	-0.6002563107365854
O	-10.572593706373244	7.198561038341465	3.0768067636634147
O	-7.635308116373245	4.836896878341464	3.3828306036634146
O	-9.547080096373243	2.034747238341464	1.6564808736634147
O	-12.334975256373244	2.521151168341464	4.197814453663415
O	-10.127319316373244	1.315134056341464	7.093597053663414
O	-7.599416316373245	-0.720900411658536	5.1394354036634144
O	-10.135918036373244	-3.143336541658536	3.6628301536634145
O	-8.159685276373244	-4.580673821658536	8.601153753663414
O	-7.590249486373245	-6.788328331658535	5.555138003663414
O	-4.423570276373244	-11.637246741658535	-10.024464066336584
O	-0.9867655177672442	-10.103234741658536	-9.406021076336584
O	8.429180583626756	8.035957548341464	11.344275553663415
O	5.781010693626755	8.356360458341465	6.837964223663414
O	6.623597133626755	4.659266258341464	6.437500503663415
O	8.315118863626756	5.256988648341464	3.0870407336634145
O	5.160276323626755	7.012068338341464	1.7899503836634145
O	2.854914133626756	4.388606848341464	3.1861435036634145
O	4.873462733626756	1.414073238341464	2.0275069636634147
O	5.524374343626755	2.6666505783414642	-1.5241082893365854
O	1.9094332836267558	3.818388888341464	-1.9719090663365852
O	3.040019933626756	7.358089208341465	-2.5879955263365853
O	0.7042013236267558	10.292724878341465	-2.1405713563365856
O	-2.393676276373244	8.023451988341463	-2.4059668163365853
O	-3.1333317363732442	8.680693228341465	-6.089190156336585
O	-2.814591706373244	4.915994448341465	-6.552520836336585
O	0.5387528536267557	4.688540138341464	-8.322718436336585
O	11.886413843626757	-2.240729841658536	-10.080195706336585
O	8.496155323626756	-2.057666841658536	-8.341297546336586
O	10.046605943626757	0.16310941834146409	-5.686138496336586
O	12.990475443626757	-2.165097361658536	-5.072127486336585
O	10.786775543626757	-5.202139931658536	-4.961055936336585
O	8.715155133626757	-3.5029102216585364	-2.2960325263365853
O	11.820154843626757	-2.613648711658536	-0.32184053033658533
O	9.709666243626756	-4.842620101658536	3.4811431636634143
O	13.168931043626756	-4.988868871658536	4.961086063663414
O	8.632326003626757	-8.147174671658535	6.709397943663415
O	11.591793743626756	-7.202561601658536	8.866003883663415
O	-2.7944959963732443	-14.567727941658536	8.083576183663416
O	-1.2999506993732441	-10.848219341658536	5.207142943663415
O	-4.572927046373244	-11.351628741658535	3.371097563663415
O	-2.946296956373244	-11.621626941658535	-0.09927719133658536
O	-0.6716547763732441	-8.711387381658536	0.7535069336634146
O	-3.651079586373244	-6.6079336016585355	1.7826094236634145
O	-5.884388136373245	-7.656708801658535	-1.1120725083365852
O	-3.353432246373244	-6.783476141658536	-3.813172826336585
O	-3.079877636373244	-3.3699375516585364	-2.1867623163365852
O	-6.7476072963732445	-2.636991141658536	-1.4527926733365852
O	-7.666518756373245	-3.115837491658536	-5.0983025163365845
O	-5.030999216373244	-0.4609327316585359	-5.904213966336586
O	-6.682164776373244	2.079296958341464	-3.589046526336585
O	-10.147805626373243	1.462344129341464	-4.870571216336586
O	-9.059602176373243	1.8319638053414642	-8.484811626336585
O	-8.708535946373244	5.6412800183414635	-8.350606306336585
O	-12.405637256373243	6.182858278341463	-7.554176316336585
O	-9.725269846373244	4.037111568341464	12.236943253663416
O	-5.211258346373245	6.833077598341465	9.198366423663416
O	-2.8318389163732443	7.9506021483414635	5.577688723663414
O	-0.28083801237324413	10.016454438341464	7.460568113663415
O	-0.07870630337324414	11.637942858341464	1.7577959836634145
O	2.925882553626756	13.761687458341465	2.7215120136634146
O	3.355959513626756	14.177630758341465	-2.3039234963365853
