9

O	25.226392971142072	32.364399029094564	18.840388271199803
O	26.02755731363946	31.348181075645925	19.356738819832437
O	26.311006953404966	30.314219235713168	18.361445286710417
O	25.85167114482195	30.460697437045148	17.09922944437865
O	27.268149269633902	31.66945264700629	20.037270842071177
O	27.03501019031684	32.20816323747341	21.376169749198525
O	27.50760794847966	33.5184785817252	21.807014335378405
O	27.68189208392968	31.272445254339615	22.29721492850478
O	26.00083225393559	29.21269632064837	18.823703438266175
