14

O	36.4983294429078	39.039999469677824	-6.034629742458744
O	35.33147870962904	39.106664649864406	-5.630032581991794
O	35.23375408379997	39.615793506530146	-4.408734749116347
O	35.65664084805839	40.70302267758574	-3.731227085561165
O	35.62606455661429	40.89566774664399	-2.29050221216051
O	36.370501930258506	39.769405252875195	-1.6996515255267357
O	35.59612433531793	42.148579594202296	-1.779287172898376
O	36.623377057663205	42.81814624499863	-2.3844624251604167
O	36.507202637760095	42.747310442389896	-3.8408601768328428
O	35.83751192701705	41.77628991271106	-4.479633704261579
O	35.98079296109204	41.687317151103734	-5.910247712098716
O	35.00607303082738	42.15701976752905	-6.701756936460724
O	37.12793174661022	41.87656310821129	-6.312389637509142
O	34.44032619122826	39.05799076538923	-6.8486248264660485
