31

O	-4.657454967498779	2.6004366874694824	-2.0624144077301025
O	-4.591319561004639	1.0039093494415283	-1.305798053741455
O	-5.220523357391357	-0.0836433544754982	-1.8712940216064453
O	-5.1687116622924805	-1.3288395404815674	-1.2808326482772827
O	-5.970696449279785	-2.71846866607666	-2.0002686977386475
O	-4.460018634796143	-1.4345533847808838	-0.10166221857070923
O	-3.8327815532684326	-0.34202033281326294	0.4586535096168518
O	-3.873394012451172	0.9087794423103333	-0.11614135652780533
O	-3.0986835956573486	2.304328680038452	0.5759241580963135
O	-4.184958457946777	3.322176933288574	0.8866732716560364
O	-2.232839584350586	2.955207347869873	-0.4769158661365509
O	-2.249054431915283	1.99125337600708	2.013589859008789
O	-1.1486907005310059	1.0902817249298096	2.018714427947998
O	-1.1501344442367554	-0.13515424728393555	1.3915997743606567
O	-0.0901249423623085	-1.0106537342071533	1.391311526298523
O	-0.10487622022628784	-2.5618858337402344	0.5920082926750183
O	1.038576364517212	-0.603385329246521	2.075828790664673
O	1.0923317670822144	0.6185524463653564	2.723231315612793
O	2.566422700881958	1.036573886871338	3.559009552001953
O	0.017357349395751953	1.449365496635437	2.6943585872650146
O	2.1234993934631348	-1.4364044666290283	2.1077721118927
O	3.0950846672058105	-1.3423043489456177	1.1180576086044312
O	3.001192092895508	-0.42116326093673706	0.08611069619655609
O	3.9788336753845215	-0.3379909098148346	-0.89581298828125
O	3.879948854446411	0.584822416305542	-1.925296664237976
O	4.195364952087402	-2.1694774627685547	1.1290867328643799
O	5.16226863861084	-2.107407808303833	0.18241959810256958
O	5.060615539550781	-1.1981652975082397	-0.8281098008155823
O	6.019683361053467	-1.1055045127868652	-1.8048070669174194
O	5.947738170623779	-0.18874606490135193	-2.8512306213378906
O	4.855345249176025	0.6600804328918457	-2.8956143856048584
