31

O	2.108	5.021	27.277
O	3.72	4.94	28.055
O	3.688	4.924	29.452
O	4.865	4.841	30.189
O	4.732	4.824	31.982
O	6.092	4.798	29.513
O	6.121	4.831	28.107
O	4.939	4.899	27.346
O	5.033	4.885	25.712
O	4.205	3.809	25.218
O	6.403	4.691	25.323
O	4.456	6.216	25.05
O	4.975	7.464	25.113
O	4.168	8.497	24.646
O	4.628	9.795	24.666
O	3.562	11.082	24.041
O	5.888	10.082	25.174
O	6.686	9.061	25.637
O	8.294	9.49	26.275
O	6.242	7.741	25.607
O	6.378	11.361	25.217
O	6.347	12.165	26.347
O	6.181	11.657	27.644
O	6.182	12.563	28.724
O	6.027	12.107	30.029
O	6.512	13.54	26.182
O	6.503	14.381	27.224
O	6.342	13.933	28.485
O	6.344	14.848	29.537
O	6.18	14.384	30.833
O	6.027	13.015	31.082
