88

O	-1.5438569510447764	0.6589152810977612	2.3668176224626865
O	-0.35092606604477644	1.1588483664477611	2.8350864424626865
O	0.8966778139552236	0.7181642316477612	2.3988067524626864
O	1.3098685539552235	-0.6608206145522387	2.9030168924626865
O	0.15949699395522354	-1.444362304552239	2.5311651624626865
O	2.3615884839552237	-1.297298764552239	1.9936974424626865
O	1.6399359839552237	-0.8142392145522389	0.8355847024626867
O	2.283803533955224	0.3644154874477612	0.6003675724626866
O	2.221567323955224	0.3324841794477612	-0.8923728215373135
O	0.9433558039552237	1.0613869104477611	0.9284620324626865
O	0.15621469195522353	0.2561522464477612	0.16457639546268654
O	0.7899534339552237	-0.019321359552238793	-1.0298749115373134
O	0.7941961739552235	-1.4812836045522388	-1.1414612685373133
O	1.7457453039552238	-2.421105514552239	-1.0305249385373134
O	-0.2439457170447764	-1.8506516645522386	-1.6937697475373135
O	0.22688153095522356	0.7650946444477612	-2.1204027675373136
O	-1.2708700100447765	0.6589011156677612	-2.0662396475373135
O	-1.6863120860447764	1.4655514224477613	-3.2320830875373137
O	-2.7729228760447766	1.3179840934477611	-4.018728897537313
O	-0.9905079250447764	2.2844638354477613	-3.8495770275373133
O	-1.8586536660447763	1.0962316084477612	-0.8510612265373134
O	2.4579592739552236	11.798699215447762	-2.4071830675373134
O	4.8344243739552235	9.056980315447761	-1.2506802465373135
O	6.7420390639552235	8.297840215447762	1.9583026624626862
O	4.787078243955223	5.703688015447761	3.953871852462686
O	4.545507053955223	5.415072125447761	7.750426712462687
O	2.428612863955223	6.80603743544776	9.423166542462686
O	0.6710586339552236	8.499692425447762	6.482722032462687
O	3.5748410639552235	10.559706555447761	5.1478227524626865
O	7.172728933955224	13.217520515447761	-3.5126347475373136
O	9.594982683955223	7.272043225447761	-9.385041407537313
O	8.639098563955223	6.336396775447761	-5.815326877537313
O	5.668326263955223	4.248780835447761	-7.024991787537313
O	1.9361965539552235	4.236189275447761	-6.275839767537313
O	1.0211244139552236	3.260794665447761	-9.846455567537314
O	0.4100690639552236	0.2579460214477612	-12.049450057537314
O	-2.9843422360447764	12.580113915447761	-1.0140914855373135
O	-1.5641412810447766	9.245509115447762	0.0706423984626866
O	-2.841286196044776	5.832711205447761	1.1130678024626866
O	-3.922959416044776	5.396870735447761	-2.5251807075373134
O	-6.161733736044777	2.4072750554477613	-2.9992997575373135
O	-9.476221936044777	2.8794260854477614	-4.853484527537313
O	-9.712371796044776	0.2039688994477612	-7.5512906275373135
O	-8.776199436044777	-0.24646497755223884	-12.989405757537313
O	-11.215896616044777	8.232917845447762	3.8971327424626865
O	-10.029442856044776	4.890855595447761	5.339347722462687
O	-10.783074516044776	1.216414889447761	4.735903542462687
O	-8.385765506044777	-1.6996974045522388	4.431059102462687
O	-7.8963119660447765	-5.1385570745522395	2.9842987124626865
O	-4.861189376044777	-7.075464954552239	1.8410779524626864
O	-3.4587259060447764	-9.555527284552237	4.370982762462687
O	-0.10612719504477641	-11.257124984552238	5.116882272462687
O	5.715673493955223	-11.108833384552238	-2.5649921575373136
O	4.424465943955223	-7.53561579455224	-2.5329827275373136
O	5.604271163955223	-3.986780844552239	-3.1253898475373134
O	6.125371923955224	-3.4871951845522386	-6.870622747537313
O	3.5986104539552235	-1.4239477845522388	-8.868747797537313
O	0.9610960039552237	-0.9555166045522389	-6.211593407537313
O	-2.639598676044776	-2.1578768745522385	-5.896116067537313
O	-1.5690845210447764	-5.255088264552239	-3.8906535775373134
O	0.6403647139552235	-6.448355024552239	-6.764309397537313
O	-2.1586891260447763	-5.621784304552239	-9.231350797537313
O	-4.739764906044777	-7.523678354552239	-7.173051847537313
O	8.588083693955223	-7.830401844552239	-5.583076287537313
O	10.149822083955224	-5.185427814552239	-3.3553255775373136
O	10.645959783955224	-1.4368074845522387	-3.8730917175373136
O	8.760135683955223	-0.21703849455223878	-0.8282097595373135
O	7.331106533955223	-1.2763977245522389	2.5396972724626865
O	10.676254783955223	-0.9409742545522387	4.344463752462687
O	9.570242183955223	-5.694547494552239	2.3647349124626866
O	9.635142683955223	-5.500524334552239	6.158034202462687
O	4.8417300439552236	-9.778067684552239	2.6152966024626862
O	1.3813205339552235	-9.206333954552239	1.1756812724626866
O	0.4140638239552237	-5.952615654552239	2.8274271124626864
O	-2.5981834460447764	-3.7823442945522383	3.6001497524626864
O	-4.1975056360447764	-4.2972958945522395	6.966765262462687
O	-3.8537834360447762	-0.6504891845522388	8.026739322462687
O	-0.07818707604477648	-0.9280960245522388	7.625829052462686
O	0.08635348795522357	-4.344210814552239	9.245465602462687
O	-1.7635848960447764	-2.9228662645522387	12.285355042462687
O	0.7909714239552235	-0.08910156055223883	12.482697442462687
O	3.9449616739552233	-2.231658604552239	12.210788242462687
O	-8.409659546044777	-9.872834684552238	5.074118102462687
O	-8.575508986044776	-11.196887384552237	1.5350130824626866
O	-10.639722016044777	2.021424155447761	0.6623703324626865
O	-8.091366636044777	4.771888725447761	0.22436830346268655
O	-9.173363476044777	7.942625995447761	-1.5865028405373134
O	-7.706256816044776	11.223040715447762	-2.7253292875373134
