21

O	-9.450905970011416	12.265106831871812	18.196070316116824
O	-9.580278710687056	11.692270341601246	19.440021248984845
O	-9.620249088431887	12.421232095067229	20.62664462935821
O	-10.917172263273722	13.184637000519064	20.87515396085312
O	-11.045775412187462	13.915300079292622	19.640180798984613
O	-10.704740377419878	14.348596981781135	21.843735895759973
O	-9.454878575084189	14.659021185069657	21.182799993249276
O	-8.571018046778986	13.971418363254804	21.960689672234317
O	-7.442431718524198	14.948640588399547	21.893634019940414
O	-8.277713246122154	13.10841391106439	20.711925937401073
O	-8.146807229211575	14.140341892548555	19.83471244201394
O	-7.454283628246491	15.174634499749878	20.430425703829926
O	-8.301476371759925	16.359476567785894	20.262446982359023
O	-9.057117587714703	17.090066719396976	21.09687026927817
O	-8.035990783515519	16.900962876322815	19.187493036520372
O	-6.0758961575435775	15.226685248983362	19.962506757745473
O	-6.073077725489967	15.136638094854444	18.46272212181777
O	-4.633820850273608	15.233543920304182	18.143948423613484
O	-4.043611231696611	15.752279227443207	17.046735115641987
O	-3.6902406726101864	15.06996660749895	18.93068767369778
O	-6.681699150859519	13.970010795119954	17.931716580287997
