97

O	-0.6855846197999999	-1.890768930032876	-2.060343246931507
O	-0.5555869059999998	-0.7925348900328761	-1.1918003139315072
O	-1.9576798869999998	-0.7145105800328762	-0.9982453779315071
O	-2.945262317	-1.613643670032876	-1.6678615759315072
O	-1.8828150069999996	-2.5217191000328762	-1.5842872459315072
O	0.0548984210000002	0.3183081599671238	-0.8649439289315071
O	-0.7095189055999997	1.1321070789671237	-1.5845775149315071
O	-2.0820843669999998	0.3973391119671238	-1.483719289931507
O	0.5783721130000002	0.7707568859671238	0.21097397306849286
O	1.8042311930000001	0.22404441996712388	0.35848633306849287
O	2.737874413	1.1772421129671238	0.0700766990684929
O	3.730971163	1.3878395938671237	0.9835220830684928
O	3.6897226130000003	0.9873940929671238	2.2829244730684928
O	2.776027933	0.02066724996712388	2.5669475330684928
O	1.9566575130000001	-0.37197437003287614	1.6003313630684928
O	2.917380123	1.6040944089671236	-1.313208384931507
O	4.537078183	2.9674282699671237	0.7017344130684928
O	-3.8724259869999997	-1.888853580032876	-0.8489997849315072
O	4.573378333000001	1.4291694362671237	3.2968797330684927
O	5.538360803000001	1.4979901769671238	3.9539682830684932
O	-2.899544507	0.37272006896712373	-2.617507136931507
O	-4.102372377	-0.33837915003287633	-2.895557446931507
O	-2.616959727	-0.7168252200328764	-3.357029326931507
O	-4.023493777	0.45725166196712375	-1.7133343569315072
O	1.172130703	0.5293209419671238	10.775655583068493
O	-0.9806183899999998	0.2559305199671238	13.897210983068494
O	-3.426275877	2.791296689967124	12.499274383068494
O	-11.933240817	1.700169831967124	4.689229593068493
O	-9.738599307000001	2.3731851499671235	7.706199563068493
O	-6.929381846999999	4.068125369967124	5.833398783068493
O	-6.626284277	1.2952421663671239	3.103260933068493
O	-6.938089336999999	-1.4623748500328762	5.666955073068493
O	-3.986630607	0.16940674996712368	7.459146413068494
O	-1.9540537269999998	0.3934484059671237	4.212376813068493
O	-2.638588347	-3.2783118300328766	3.7160723730684926
O	-1.4241467609999998	-4.168978750032876	7.215766493068493
O	1.6373277330000002	-1.9050772200328763	6.832312483068494
O	2.2873914330000003	-3.3696268000328766	3.4281163230684926
O	2.391449373	-6.866046100032877	5.038245823068493
O	4.696666923	-5.799923580032877	7.8377493130684925
O	7.036796893000001	-4.204952820032876	5.220213953068493
O	7.092954433000001	-7.302653250032876	3.030278843068493
O	8.124687762999999	-9.355995240032875	6.065425183068493
O	11.876259183	-6.652913190032876	3.014736383068493
O	8.260523613	-5.405317460032876	-3.1866463969315073
O	5.969245003	-2.5030255100328764	-4.143365566931507
O	8.761752663	-0.4926850200328763	-5.777880446931507
O	11.055302283	-1.0874672100328762	-2.804952436931507
O	8.260691742999999	0.11839341996712371	-0.4882315059315071
O	7.645105283	3.1813888399671235	-2.569728856931507
O	11.313798282999999	4.150659649967124	-2.785740946931507
O	11.978427182999999	3.711884829967124	0.9360633730684929
O	8.806376293	5.625297219967123	1.730005923068493
O	11.486222482999999	8.625591789967125	4.878358763068492
O	3.520015943	14.639203459967124	3.4832421030684926
O	3.813413633	10.929937059967124	2.713067973068493
O	5.503540913	9.263632969967123	5.686294293068492
O	4.2428486030000006	5.669511109967123	5.284374003068493
O	4.943584683	5.079442289967124	8.973869463068493
O	1.5707778330000002	6.401802929967124	12.849055583068493
O	0.43765003300000027	6.649735279967124	9.228012863068493
O	1.398248053	10.002887229967124	7.741831203068493
O	-0.6486859139999999	11.134699729967124	4.742071703068493
O	-4.289934077	11.484616159967123	0.03640889706849282
O	-7.621738786999999	7.148156599967124	0.2304909680684929
O	-8.843893927	7.511152749967124	-3.3664141269315073
O	-5.237591877	7.1824533399671235	-4.608247926931507
O	-4.529652757	10.898095429967123	-4.922946696931508
O	-2.759947657	10.726572699967123	-8.276910616931508
O	-0.5587906379999998	7.846754799967123	-7.070096126931507
O	0.2266646710000002	9.760491439967124	-3.893398426931507
O	8.564360843	1.6231922779671237	-11.877827316931507
O	4.556606643	4.454575999967124	-9.826338146931507
O	4.776678363	0.8612304459671238	-8.598580766931507
O	2.7386300230000002	-0.2324224500328762	-11.604887716931506
O	-0.07058001599999986	2.2419170119671237	-10.847831416931507
O	-0.0032072499999997728	1.2391131799671238	-7.269745816931508
O	-0.20612287699999976	-2.4161863400328762	-8.293319206931507
O	-3.173663257	-1.6894665800328763	-10.576737696931506
O	-5.031763206999999	0.10627484996712377	-7.808844106931508
O	-4.253689327	-2.585106200032876	-5.256933816931507
O	-5.363094497	-5.301972060032877	-7.632690466931507
O	-9.251881347000001	-2.8971441600328767	-4.661308596931507
O	-8.601858257	-6.512625740032877	-3.764646796931507
O	-12.605542117	-5.485264050032876	-1.3375423709315073
O	-15.907773317	-1.5530722700328763	0.32673053306849287
O	-11.388215217	-3.0940752600328763	3.035593623068493
O	-6.6064678169999995	-7.573153650032877	2.9719568530684928
O	-0.5308620539999998	-13.058350140032877	2.808737993068493
O	-1.4128589959999998	-9.943803940032875	0.8052942530684928
O	-4.419437177	-11.566637240032875	-0.9093106369315072
O	-2.121846297	-14.367811340032876	-2.0816259269315074
O	0.6522476130000002	-12.189032040032876	-3.505272076931507
O	-1.753382313	-9.740523140032876	-5.155359876931508
O	-3.768120197	-12.501234340032877	-6.817069766931507
O	0.8401546930000002	-9.083661640032876	-9.157125436931507
O	-0.10202134499999982	-6.197899210032876	-14.825527616931506
