24

O	56.27055524774802	-0.1672174334312908	5.845761924518781
O	55.80177233675976	0.5324875113504002	4.719689186510433
O	56.60735946547412	-0.23668301882010478	3.8428641713920264
O	57.49699838517083	-1.3517660877545592	4.287023561856997
O	57.588679043315885	-0.5609184038256658	5.438776373651814
O	54.82061870564827	1.1338996513433237	4.0958777545402105
O	54.35185226067606	0.05865054174455331	3.4725219971702783
O	55.67600802259601	-0.7295145685335913	3.2288017275534426
O	54.68229970023609	2.2724294909093565	3.529351899103104
O	54.45568951427833	3.2038821478021986	4.480366448118245
O	53.137533983854794	3.555512377768064	4.4326401433742655
O	52.83932744344097	4.886162073342376	4.359025129312563
O	53.71549435267859	5.860072890681282	3.992509263035074
O	55.03026651256868	5.518638207362605	4.062254373643814
O	55.3379217405394	4.267963905758057	4.3801288756739885
O	52.12936992683838	2.606985802224682	4.892863323764063
O	51.15109677219947	5.135082881593304	3.8002507238322756
O	58.56406692743215	-1.3238162591956013	3.604022001471056
O	53.35822641994088	7.186545986150415	3.6505342552463724
O	53.063564895967396	8.310158339431743	3.786043259161696
O	55.64869790066026	-2.120176022438245	3.368933585585797
O	56.69600737927265	-3.0859901364273887	3.379653297813969
O	55.93956507265253	-2.4538169434324897	4.640914791526936
O	56.60734113511427	-2.1698575595125456	2.2889007797178125
