24

O	55.148	-1.151	3.598
O	55.745	-0.16	4.529
O	57.201	-0.297	4.498
O	57.527	-1.026	3.177
O	56.284	-1.961	2.972
O	55.568	1.233	4.368
O	56.675	1.912	4.694
O	57.787	1.094	4.728
O	54.433	1.8	3.944
O	54.119	3.119	3.91
O	52.765	3.481	4.075
O	52.454	4.837	4.038
O	53.438	5.827	3.844
O	54.761	5.48	3.684
O	55.1	4.126	3.718
O	51.703	2.428	4.283
O	50.837	5.307	4.232
O	58.704	-1.781	3.271
O	53.147	7.204	3.805
O	52.785	8.287	3.792
O	58.319	1.238	6.141
O	59.364	0.431	6.272
O	57.407	0.941	7.077
O	58.684	2.484	6.322
