20

O	-17.938705444335938	-35.73963165283203	1.3871722221374512
O	-18.06818199157715	-37.034454345703125	1.885727882385254
O	-18.99176025390625	-37.308197021484375	2.890974521636963
O	-19.78968048095703	-36.279022216796875	3.395906925201416
O	-19.65880012512207	-34.978668212890625	2.894115447998047
O	-18.73013687133789	-34.711082458496094	1.887685775756836
O	-18.591075897216797	-33.28876876831055	1.3319621086120605
O	-19.59054183959961	-32.61759948730469	1.0849266052246094
O	-17.344608306884766	-32.86509323120117	1.1385207176208496
O	-17.10828971862793	-31.500999450683594	0.5968990325927734
O	-16.738616943359375	-31.59499168395996	-0.822382926940918
O	-16.54467010498047	-30.313480377197266	-1.4273900985717773
O	-16.248249053955078	-30.578081130981445	-2.9153008460998535
O	-14.994669914245605	-31.252399444580078	-3.0453996658325195
O	-15.40063190460205	-29.57381820678711	-0.6897611618041992
O	-15.239323616027832	-28.280689239501953	-1.2542595863342285
O	-15.686246871948242	-29.439151763916016	0.8152318000793457
O	-14.550569534301758	-28.87753677368164	1.4732751846313477
O	-16.015823364257812	-30.809303283691406	1.43035888671875
O	-16.435821533203125	-30.676204681396484	2.79896879196167
