20

O	37.158	23.487	30.491
O	38.335	23.867	31.133
O	38.475	25.16	31.63
O	37.429	26.074	31.484
O	36.247	25.691	30.839
O	36.114	24.394	30.342
O	34.817	23.971	29.642
O	33.726	24.289	30.11
O	34.969	23.25	28.534
O	33.769	22.788	27.788
O	33.544	21.361	28.058
O	32.372	20.856	27.412
O	32.232	19.388	27.856
O	33.316	18.619	27.33
O	32.525	21.028	25.88
O	31.342	20.575	25.238
O	32.783	22.494	25.494
O	33.053	22.584	24.095
O	33.97	23.064	26.288
O	34.123	24.474	26.052
