17

O	-3.135	40.537	23.978
O	-1.97	40.611	24.331
O	-0.901	40.091	23.699
O	-0.938	39.322	22.444
O	-1.761	38.056	22.557
O	-1.791	37.439	23.66
O	-2.377	37.662	21.54
O	-1.381	40.167	21.242
O	-1.543	41.292	25.603
O	-0.025	41.099	25.63
O	0.241	40.324	24.368
O	1.363	39.955	24.037
O	-1.677	42.819	25.634
O	-1.213	43.477	24.333
O	0.313	43.286	24.382
O	-0.519	43.202	26.541
O	0.53	42.527	25.685
