50

O	-1.3649878513333333	3.431298308363636	-5.848027068969698
O	-1.2004599823333333	4.700280357363636	-5.791445168969697
O	-1.9677164043333333	5.625000527363636	-4.981522828969697
O	-3.4064668723333336	5.468428047363636	-4.731116248969697
O	-4.275751702333333	5.895213457363637	-5.844155588969698
O	-3.9501173623333337	7.192181567363636	-6.274943688969698
O	-5.524251192333333	5.766878657363636	-5.601009768969697
O	-3.903339492333333	6.404499337363636	-3.622609118969698
O	0.19297755766666658	5.172342657363636	-5.6274133289696975
O	0.24661012766666657	5.167049657363636	-4.132653838969698
O	-1.1512952637333334	5.573122557363636	-3.7699664089696974
O	-1.3236731143333333	6.110535557363637	-2.6676164589696976
O	0.3800059376666667	6.667597037363636	-5.857314088969697
O	-0.49711174633333344	7.474938087363636	-4.877824318969698
O	0.2598930976666667	7.510067507363636	-3.5387714689696974
O	1.7256162976666667	6.813846777363636	-5.128122358969698
O	1.1874883276666666	6.285224987363636	-3.799120768969698
O	-5.431452542333333	-0.14171028263636387	11.1944196210303
O	10.485675007666666	1.7592545573636362	2.4715693010303026
O	7.229675387666667	3.2312400853636363	3.5035919910303024
O	6.170635047666667	5.552364677363636	0.5921732910303024
O	2.5948168576666664	5.2238343773636355	1.8137552710303024
O	2.6534304376666666	4.407955847363636	5.583191981030303
O	1.6709063476666668	9.755709507363637	4.866016231030303
O	-0.35575609033333344	8.186787237363635	7.795297431030302
O	-4.873864012333334	4.842273977363636	10.454143721030302
O	-5.051504902333334	3.094731296363636	7.114014991030303
O	-7.817607562333333	0.9954007473636362	5.665189371030302
O	-7.030487092333333	-2.7085056226363635	4.938326271030302
O	-7.756165862333333	-1.7947969626363642	1.3095371310303021
O	-5.190360672333333	1.141133457363636	1.4087520510303022
O	-2.669910032333333	-1.2718937126363636	3.1278412010303027
O	-3.227391512333333	-4.089579592636364	0.5887726810303022
O	-2.871735962333333	-1.7384882326363638	-2.3085494989696977
O	0.16648943766666657	0.06609817736363599	-0.7327101359696977
O	1.8728959176666666	-3.293949382636364	-0.2856108059696977
O	1.0730258276666664	-4.511214162636364	-3.8027755789696975
O	1.3119387376666667	-1.3367236826363635	-5.930739708969697
O	4.085896337666667	0.593566587363636	-4.144327528969698
O	5.817216537666667	-2.2794822126363643	-2.3361845489696975
O	5.306075957666667	-0.5381015326363641	1.0468708810303025
O	5.172015187666667	-1.1798299026363637	6.647916201030302
O	1.8602287776666666	-1.983955872636364	4.870528951030303
O	-9.763008802333333	-7.225937832636364	-6.810995308969697
O	-4.226390962333333	-4.776414702636364	-7.761222208969698
O	-1.3788793983333334	-6.589026132636364	-9.571356378969698
O	-2.0104474513333335	-1.7469126126363639	-11.2425674189697
O	1.4667502976666664	-2.055263192636364	-9.931073568969698
O	3.6846215576666665	1.0334817173636361	-10.274569698969698
O	7.032669197666667	-0.6220466226363639	-9.859226178969699
