26

O	18.096893173854166	16.760870381882604	22.710268257489524
O	19.197853700462243	17.256340590568378	23.00981875448229
O	17.312895133770898	16.25425711674285	23.65653798790404
O	16.035081625178933	16.01778901448059	23.34290320528573
O	15.386456185243123	15.32081218601259	24.233396586931512
O	15.547175943422141	15.840314065241708	22.08284736956324
O	16.266118472407825	16.343356547268886	21.079770451967146
O	15.664561933348848	16.619844114627178	19.840490340597928
O	14.24662727806459	16.09450832418474	19.5000923616873
O	13.705206056540472	16.415981100782062	18.188908735113095
O	13.520660819925332	15.207580581207264	17.439352342002156
O	12.854012631018152	14.250607467043302	18.278333935039015
O	11.939449778172825	13.457955694560951	17.352897492139565
O	10.631158911108553	13.416020585562205	18.09277500475555
O	9.661139267424277	14.335487903201075	17.359468084673185
O	10.602548192970044	15.27710462744372	16.731382713523473
O	11.631033261594247	14.337162379312854	16.191943006892053
O	16.327070301023127	17.148716104800304	18.9234191160299
O	16.285512758665636	17.802390886702838	17.71516769454886
O	17.538378398883026	18.112583204122302	17.22701898701051
O	18.07578633357266	18.942548662915932	16.223292045716608
O	17.28277878251922	19.007333302903866	14.988344231092665
O	18.226715567578367	17.314451853349556	17.956658955651996
O	17.764646447258922	17.476005629736356	19.244471901398256
O	18.44259743427848	17.317825507579578	20.511590880962782
O	17.626060231975536	16.703688681087097	21.411102668350235
