26

O	18.183	17.142	23.055
O	19.278	17.516	23.435
O	17.141	16.866	23.884
O	15.991	16.374	23.334
O	14.999	16.026	24.195
O	15.791	16.293	22.067
O	16.706	16.627	21.109
O	16.384	16.522	19.736
O	15.146	15.865	19.154
O	15.366	14.425	18.571
O	14.222	14.205	17.642
O	12.853	14.233	18.244
O	11.81	14.31	17.089
O	11.695	15.716	16.474
O	10.248	15.777	15.924
O	9.399	14.96	16.956
O	10.39	13.976	17.605
O	17.406	16.913	18.869
O	17.498	17.047	17.524
O	18.662	17.435	17.17
O	19.226	17.66	15.982
O	18.608	17.471	14.685
O	19.446	17.652	18.244
O	18.621	17.337	19.34
O	18.987	17.434	20.681
O	17.971	17.036	21.565
