44

O	-0.4443891644477844	1.5721921920776367	2.8810813426971436
O	-0.9946558475494385	1.6721335649490356	1.7082586288452148
O	-1.8478511571884155	2.814910650253296	1.6262366771697998
O	-1.9944552183151245	3.6879045963287354	2.701401472091675
O	-2.813135862350464	4.796474933624268	2.6392316818237305
O	-3.5111913681030273	5.051307678222656	1.4742965698242188
O	-3.368781566619873	4.186756134033203	0.4032807946205139
O	-4.117015361785889	4.437453746795654	-0.8815439939498901
O	-2.556824207305908	3.1416802406311035	0.5525339245796204
O	-0.7105200290679932	0.7110172510147095	0.7359795570373535
O	-1.027439832687378	0.9863908886909485	-0.5987874865531921
O	-0.7033191919326782	2.282820224761963	-1.00041663646698
O	-0.9351731538772583	2.741377592086792	-2.264617919921875
O	-0.09493876248598099	-0.5926497578620911	1.2153986692428589
O	-1.3092080354690552	-1.5975342988967896	1.0700300931930542
O	-1.7136489152908325	-2.512514591217041	2.4355711936950684
O	-1.197037696838379	-2.1435964107513428	3.743680000305176
O	-1.7458386421203613	-4.005087852478027	2.2321393489837646
O	-3.4784209728240967	-2.1499173641204834	2.558588981628418
O	-4.078740119934082	-2.501258134841919	1.2378698587417603
O	-5.013413429260254	-3.71266770362854	1.3656864166259766
O	-4.981991291046143	-1.3620574474334717	0.7434672713279724
O	-3.125631809234619	-2.8124094009399414	0.14102457463741302
O	-2.041868209838867	-1.795105218887329	-0.010972553864121437
O	-2.0010640621185303	-1.1941848993301392	-1.3301773071289062
O	-1.60932195186615	0.18479999899864197	-1.5871844291687012
O	-1.8485838174819946	0.6173521280288696	-2.8461756706237793
O	-2.423372268676758	-0.22263409197330475	-3.767815589904785
O	-1.5135109424591064	1.898977279663086	-3.1950087547302246
O	0.9487455487251282	-1.0546482801437378	0.21030472218990326
O	2.2440860271453857	-1.108829379081726	0.6341289281845093
O	2.6924571990966797	-0.7863361239433289	1.8720179796218872
O	3.267665147781372	-1.5306373834609985	-0.24287225306034088
O	2.957857131958008	-1.889281153678894	-1.5325126647949219
O	1.6546825170516968	-1.8346747159957886	-1.9585883617401123
O	0.7119315266609192	-1.4162211418151855	-1.0550535917282104
O	3.974691867828369	-2.316093683242798	-2.4286420345306396
O	5.31514310836792	-2.4112708568573	-2.118285655975342
O	5.967515468597412	-1.1486788988113403	-1.7016605138778687
O	6.064803600311279	-0.87678462266922	-0.3583205044269562
O	6.653957843780518	0.2708803117275238	0.13135883212089539
O	7.168492794036865	1.1879243850708008	-0.7476574778556824
O	7.091518878936768	0.9532120823860168	-2.1107044219970703
O	6.487793922424316	-0.22049225866794586	-2.5765695571899414
