44

O	25.050324542455982	6.798698714777069	35.662880774075816
O	26.011168138342633	7.018282481392535	34.91225029934848
O	26.14313461553912	8.023934643073522	33.918105457650356
O	26.93392186529671	7.322167029680381	33.002308419088784
O	28.21605762112225	8.015081063854261	32.44848810320575
O	28.6950654487454	9.105777775615305	32.93609917066326
O	27.76274471757688	9.930530117975621	33.36054221114797
O	28.283319831005667	11.229998379547746	33.48560731445778
O	26.507923271288366	9.21239134473494	33.43696336523035
O	26.88298201237306	6.867547998908067	35.882636010126696
O	27.430967026518495	8.154578544180463	36.032763051102314
O	27.129174247240822	9.333526002002078	35.59167234978769
O	28.13180819167899	10.450069897755002	35.86611684671315
O	27.903338842081205	5.8910504248962114	36.156676566473365
O	27.639563335594076	6.05597018138127	37.573252215209685
O	26.553904302163545	5.8343179746307365	38.894408591915095
O	27.251909198615806	6.04532093901825	40.27618377504808
O	27.097895364393917	4.690586047145428	40.015550420257114
O	26.057389247041797	4.4411689265183645	38.051059258523466
O	27.296406110216562	3.872902229298581	37.33213693926985
O	27.740521785496096	3.505017052312991	35.97847692797279
O	26.111301876864847	3.8928002100348547	36.35676395361296
O	28.240010070261064	4.424650796109511	38.34961550616893
O	28.717763903104554	5.79108363439837	38.123299149221246
O	28.57124347261151	7.248534179012137	37.99227765610797
O	27.48099323130533	8.134199467911353	37.37657284704332
O	28.102189624585545	9.294761244943166	38.07202417195587
O	28.49796583579388	9.273951548379973	39.36807441503053
O	28.347971075284075	10.305086346591917	37.24803008682191
O	29.335144119454938	6.603947470956475	36.37132465392853
O	29.2979401771958	7.175640522884528	35.283671114996466
O	29.264085773321508	6.2441153909142795	34.24098561363761
O	29.825097057442953	8.32718316774707	35.00622384623134
O	30.369189769860423	9.171532041154713	35.78088909067698
O	30.595468494523544	8.615443366810442	37.01110703344281
O	29.996869533882055	7.307146493197888	37.33668727110905
O	30.70745568644577	10.36327327342246	35.14078762168225
O	31.203468774416425	9.762603970461829	33.978231966302815
O	31.6470128318011	8.35896069157712	34.38263836240398
O	32.51752713536743	8.278938395233183	35.41217596149827
O	32.96894314698176	7.228405442774057	36.32133009762942
O	32.53035780726678	6.038514566854984	36.016384665632714
O	32.06583142283731	5.969990801726339	34.76461288129412
O	31.77197760361739	7.104855452712525	33.880725035227
