14

O	-33.940662968743744	6.831950168939007	13.750278195859062
O	-34.57041717386517	6.4698980931078385	12.740175639968312
O	-34.79342885919168	5.0956935014707865	12.062961431443492
O	-35.46904074651696	4.604597189129508	13.246180354540694
O	-34.90500083418671	5.051482585344293	14.62540063000275
O	-35.51425824758182	5.3946434681436095	10.86476825214145
O	-36.21195029379556	4.709339399374397	9.719099236069292
O	-35.675349375608356	6.681072235598119	11.02210594757319
O	-35.8018259264439	6.992471097742197	12.41323649469728
O	-37.00677566146415	7.187970091262689	13.228410758704513
O	-38.12006412424446	7.40000930800703	12.418647212279934
O	-38.87549360273155	6.323653572643789	12.08677885357162
O	-38.535355170311476	5.542154813571664	13.055656418282148
O	-37.72472539399711	6.24603723288351	13.940715248345489
