69

O	-1.5429834514508463	3.5876305775254234	3.415912115332203
O	-1.6065926414508462	1.6814276675254236	2.235763435332203
O	-0.9063026740508462	2.7730555475254235	2.721989075332203
O	0.4962012565491538	3.0079282575254234	2.779775845332203
O	2.4198195665491538	1.9571636475254235	2.086540685332203
O	1.1933000565491536	1.8658213075254237	2.680123045332203
O	1.3063289465491539	4.058697397525424	2.647890295332203
O	2.195494566549154	3.9998739075254237	1.6307741053322031
O	2.2450221565491537	2.7726522275254237	1.043803811332203
O	1.1616979265491536	2.034624887525424	0.33523072633220297
O	-5.967794973450847	5.523267937525423	-4.354754684667797
O	-9.608065183450847	4.8949650675254235	-5.343854744667797
O	-8.823767913450846	1.8958972675254238	-7.550949794667797
O	8.720322326549153	0.20499942652542363	-5.995544094667797
O	6.636384916549154	-2.7954569724745766	-6.960216194667797
O	6.030740676549154	-9.939211052474576	-7.367255264667797
O	9.571202486549153	-10.697728352474575	-3.6754327546677974
O	9.458074686549153	-7.058242972474576	-2.5929840746677972
O	9.585057786549154	-4.889088452474576	0.5575009807322029
O	12.866919386549153	-4.561369642474577	2.461098635332203
O	12.275589686549154	-0.8099697524745765	2.675012085332203
O	12.592814186549154	-0.8247427924745764	-1.131898504667797
O	9.042163786549153	-2.0548430324745763	9.549666055332203
O	-1.8133744294508463	-3.3095407324745767	-7.478478624667797
O	0.8536603365491537	-0.7612472324745764	-8.341855164667797
O	2.014834336549154	2.3978469875254236	-10.100448464667796
O	1.9870315765491537	4.526421107525424	-6.9245580746677975
O	0.3015999065491537	7.828113547525423	-6.122888974667797
O	-3.445786683450846	7.908970207525424	-6.851276984667797
O	-4.741339203450846	10.964456847525424	-0.7740967246677971
O	-1.0213101478508462	-0.21257148547457638	-13.619608064667796
O	-3.750035033450846	0.4476168725254236	-11.054183064667797
O	-9.181451023450848	-6.670290992474577	8.134658615332203
O	2.589181546549154	-0.8018542424745764	15.870470835332204
O	-1.8891708044508464	-7.412776932474577	8.541705855332204
O	-4.265604663450846	-4.627219882474576	7.587014145332203
O	-6.358972113450847	-4.591437472474577	4.441879075332203
O	-8.667828083450846	-2.0268006724745766	2.917999105332203
O	-11.517249013450847	0.13197765152542362	4.171532225332203
O	-11.065602013450846	5.6872272175254235	3.760410585332203
O	-10.904557613450846	6.521807677525423	0.04700798333220291
O	-9.468122043450848	3.2046905375254235	-1.154475364667797
O	-5.844637063450847	2.1973556875254237	-0.34615118366779707
O	-2.292300253450846	1.6380140175254234	-1.588958324667797
O	0.12135960654915379	4.553767357525424	-1.3371960046677969
O	3.6552581765491534	5.874711837525424	-2.013664014667797
O	5.168650806549154	4.124755467525424	-4.957195584667797
O	3.094823636549154	0.9802723535254236	-4.467244214667797
O	5.560850486549153	-0.28421058447457637	-1.8314184946677972
O	6.860322386549154	-3.796845902474576	-2.3632889246677973
O	3.954122056549154	-4.726525802474576	-4.6268051946677975
O	1.5288862965491536	-7.634475532474576	-4.307918664667797
O	0.8870372865491538	-9.616087352474576	1.308872142332203
O	3.444888936549154	-7.008481172474577	0.3391612103322029
O	2.619213526549154	-3.2714347524745766	0.2857887343322029
O	4.437879096549153	-2.0103439024745766	3.3976948053322027
O	3.226306386549154	1.0616327105254237	5.272274785332203
O	0.34007037654915373	3.1967344475254236	6.320384895332203
O	-0.5455340794508463	6.662410937525424	7.680638595332203
O	-0.7480348274508463	8.685063067525425	4.496132365332203
O	-3.046735683450846	6.988825347525424	2.033280615332203
O	-6.790737703450846	6.221916717525423	2.070271775332203
O	-7.295093823450847	8.148323557525424	5.320944225332203
O	-5.838332303450846	4.295200627525424	8.713869335332204
O	-5.927815513450847	1.2153610385254237	6.488820995332203
O	-2.9649173034508465	-0.1619384994745764	4.555682605332203
O	-0.4733745384508462	-2.3239595524745766	6.414958435332203
O	1.0148007665491539	-5.311377362474577	4.606386535332203
O	3.817496576549154	-7.792530442474576	5.213481985332203
