29

O	3.003344329866279	-12.918301530269904	37.414756572189425
O	1.011375891398254	-11.185615419435873	37.566668632237025
O	4.422237344989457	-12.79989695176952	37.11949177548422
O	2.262163857243034	-11.812455067758513	38.014445264906676
O	-1.9880111295720668	-6.594340974003246	39.930316241632575
O	-0.4979415255094767	-13.310708084905421	33.36889702222673
O	1.5119810852600228	-14.123078813390588	33.380250274573584
O	3.0072835054408142	-8.810200311780614	32.37740023374758
O	4.261188739445649	-9.493305370134319	32.292103542310734
O	-0.5032257020587809	-9.802784521882066	40.795495008696996
O	2.834997907922576	-8.922725428203172	30.801110552185172
O	4.019795731083425	-10.85905729882391	32.12925336457406
O	0.2060914000978923	-10.772390064511988	40.049399607592385
O	-1.53013195086524	-9.114141766278559	38.81508118027775
O	-0.17184494955139476	-9.586113546086171	36.944929048538455
O	0.9359383546917056	-10.74865951766068	31.022256220590663
O	1.0580993471996307	-10.956186913794705	34.89076785643306
O	0.9279183035643265	-12.257848205313069	35.04066921874101
O	-2.0639134711556375	-7.809956987405796	40.47313596381232
O	2.3078989974059563	-12.150362820839682	31.23603172177886
O	-1.4180592982481792	-9.000705377260715	40.213102299802685
O	0.7391240671774423	-10.542842429400848	36.26671298601707
O	1.0728449799924906	-11.896017562974501	31.88015813632578
O	2.0999637020646014	-10.124049451306933	30.707704098636935
O	-0.5369795031367693	-9.790368537936656	38.18553260995386
O	3.025892828556394	-11.057504344983844	31.050869887631098
O	0.21300018379732313	-10.773225789464021	38.64584976038128
O	0.959336025715375	-12.764034882438548	33.24350986846936
O	2.845697194446737	-13.960694224729831	36.75118134100519
