29

O	1.456473469734192	2.3527393341064453	0.23632249236106873
O	2.0888776779174805	0.09042256325483322	0.6705412268638611
O	1.2670273780822754	1.9660208225250244	-1.0820927619934082
O	1.9069792032241821	1.4048962593078613	1.2866734266281128
O	7.56656551361084	-1.9995453357696533	-1.9434484243392944
O	-2.3243114948272705	-0.37939757108688354	3.2734577655792236
O	-2.271793842315674	2.0132784843444824	2.966832160949707
O	-6.331307411193848	0.566213846206665	-2.3846123218536377
O	-5.772940635681152	-0.6833045482635498	-2.561274290084839
O	5.445077896118164	-0.5841829180717468	-0.6734758615493774
O	-5.868474960327148	1.4066824913024902	-1.3706928491592407
O	-4.751266002655029	-1.089762568473816	-1.721907377243042
O	4.453672409057617	0.1430305391550064	-0.052024513483047485
O	3.9960708618164062	-2.4167163372039795	-0.9961055517196655
O	1.6667100191116333	-1.9708530902862549	-0.07278396189212799
O	-4.160541534423828	1.5377599000930786	0.5337716937065125
O	-0.22381992638111115	-0.7117845416069031	1.0580499172210693
O	-0.4558378756046295	0.5640990734100342	1.6735917329788208
O	6.286065101623535	-2.5572943687438965	-1.777213454246521
O	-3.358126640319824	-0.44342514872550964	0.1651497781276703
O	5.245388031005859	-1.8610565662384033	-1.153411865234375
O	1.1499563455581665	-0.8625966310501099	0.5611575841903687
O	-3.2309937477111816	0.5950093269348145	0.9431053400039673
O	-4.854155540466309	0.9982473254203796	-0.5404012203216553
O	3.005370616912842	-1.686375379562378	-0.37354403734207153
O	-4.302484035491943	-0.2509169578552246	-0.7239925265312195
O	3.2009754180908203	-0.40996313095092773	0.10748174786567688
O	-2.0778398513793945	0.716537356376648	2.2493722438812256
O	1.248682975769043	3.5522379875183105	0.602920651435852
