23

O	33.502	-0.457	17.245
O	31.696	-2.263	17.244
O	29.634	-4.319	18.349
O	25.43	-3.104	24.008
O	34.924	-0.248	17.368
O	33.095	-4.019	17.565
O	30.878	-5.037	20.035
O	27.889	-3.352	26.157
O	35.81	-1.365	17.57
O	28.694	-4.219	20.28
O	35.268	-2.693	17.652
O	32.991	-1.793	17.33
O	33.851	-2.876	17.526
O	31.817	-3.612	17.391
O	30.68	-4.618	17.371
O	29.818	-4.562	19.669
O	28.606	-4.025	21.66
O	29.681	-4.138	22.614
O	29.44	-3.923	23.998
O	28.127	-3.596	24.461
O	27.046	-3.484	23.51
O	27.3	-3.697	22.118
O	29.787	-4.602	16.204
