30

O	5.655359268188477	0.4797784388065338	-0.3942914307117462
O	3.3600921630859375	0.24650238454341888	-1.2301275730133057
O	1.6243886947631836	0.4844682514667511	0.19841714203357697
O	4.3084564208984375	0.46768733859062195	-0.19728556275367737
O	0.9598774313926697	0.0471055693924427	-1.9319146871566772
O	-0.2968372106552124	-1.2601466178894043	0.2363729327917099
O	6.534858226776123	0.6896604895591736	0.6562781929969788
O	-0.4104261100292206	0.052629053592681885	-1.721272349357605
O	-4.477853298187256	-0.5745497941970825	2.9854953289031982
O	6.144784927368164	0.28022316098213196	-1.6556432247161865
O	-5.119814395904541	-0.1509573757648468	1.9738930463790894
O	-6.318428039550781	0.41807040572166443	2.1937525272369385
O	3.8278400897979736	0.6712731122970581	1.0840961933135986
O	6.0271897315979	0.8939910531044006	1.9479892253875732
O	7.906315803527832	0.7057452201843262	0.4781203866004944
O	7.498981475830078	0.2900696396827698	-1.8674259185791016
O	4.68511438369751	0.8823627233505249	2.147524118423462
O	1.9707059860229492	0.2577321529388428	-0.9969109892845154
O	8.356122016906738	0.4990995228290558	-0.8187780380249023
O	-0.9765449166297913	-0.6268029808998108	-0.6105145215988159
O	-2.4398531913757324	-0.5492298603057861	-0.4946672022342682
O	-3.1022679805755615	-0.3613389730453491	0.6793432235717773
O	-3.144331216812134	-0.700355589389801	-1.6755836009979248
O	-4.512439250946045	-0.31676560640335083	0.7152363657951355
O	-4.50147819519043	-0.6578972935676575	-1.6427807807922363
O	-5.199662685394287	-0.4661983549594879	-0.45115482807159424
O	-6.671343803405762	-0.3986428380012512	-0.5450711846351624
O	-7.269168376922607	0.9110889434814453	-0.14834292232990265
O	-7.126852512359619	-0.7024341821670532	-1.955492615699768
O	-7.29278564453125	-1.512168049812317	0.3263970911502838
