30

O	25.391508888071865	-1.357534665873366	23.091097565425642
O	23.670545201600547	-2.433056233065008	21.9567874733707
O	21.597440215869998	-3.3142700032746637	22.17964602673828
O	24.250335403877905	-2.1579909659622505	23.157728691694707
O	22.28948560339027	-3.9383945585758733	20.284386201570342
O	22.576334882765398	-5.620823138571838	22.48254740317625
O	26.35124310936172	-1.5142358075257696	24.024215540640512
O	22.491868927254487	-5.386196960519022	20.36465944958775
O	28.710294754746794	-3.4861471294637925	23.52673111016712
O	25.231490725487955	-0.01870600604004813	22.736869932878225
O	27.596222443912374	-4.3561463141421735	23.79687901732832
O	27.773685811688	-4.282670587101483	24.98167349943916
O	23.86330782268724	-2.6963779473264107	24.33325720725084
O	26.051363666337508	-2.0243157423303115	25.239095918639986
O	27.528768908544805	-0.8781265054385641	23.923409241826512
O	26.277658349482955	0.8739418300881743	23.0911571400501
O	24.925471401817312	-2.7826960579184328	25.26326463973428
O	22.652413437093287	-3.3297828212020146	21.54232115882629
O	27.504814349501842	0.3384432344532181	23.339275308652553
O	23.297221364362493	-5.870904660262675	21.501266492292835
O	24.759640783094998	-5.852897734523584	21.768264685165846
O	25.25475694551225	-5.127093930876924	22.908673388114117
O	25.2099390125517	-5.214511206945577	20.607854914319333
O	26.453953010717242	-4.442580029239324	22.997961157877487
O	26.142305901500716	-4.243624426899253	20.588713529030745
O	26.862900893852924	-4.04327368566832	21.75405773386641
O	28.236387393843724	-4.699262106357988	21.580313256094843
O	28.657298599222894	-5.757903724762611	22.595621867922738
O	29.10223727725155	-3.797312409111006	20.91418246022032
O	28.336157572552914	-5.712661946224533	20.49941152712142
