75

O	-0.8203939975084741	1.7081450414745765	0.5230698938457633
O	-2.140175188508474	1.9570229614745764	0.7380340788457632
O	-0.07963663850847413	2.185034781474576	1.4034086788457634
O	0.800953451491526	-0.5775836635254237	-0.3410891157542367
O	1.5496323114915258	-3.6990838785254234	-1.7962102511542368
O	-2.9837153885084744	1.3066071514745763	-0.061639964154236726
O	-2.622930948508474	0.25124691677457633	-0.7701915471542368
O	-3.215508418508474	-1.1808658985254237	-3.1683867411542366
O	-1.348273578508474	-0.09529992952542368	-0.8986190901542367
O	-0.46544160850847416	0.4903279644745764	-0.05590804015423673
O	-0.03074596850847411	-1.7202932385254237	-1.5360159411542367
O	0.8370227914915258	-2.240083148525424	-2.4470026311542368
O	0.3148394914915258	-2.5498583585254235	-3.6837893611542367
O	-0.8479854075084741	-1.9759112185254235	-3.9281536611542367
O	-1.625948563508474	-1.6932559085254237	-2.9021393711542367
O	-0.9549069645084741	-0.8489231185254236	-1.9456683011542366
O	0.5205240614915259	1.7985837514745764	-12.730500871154236
O	-1.9075898805084741	3.4442621614745765	-10.335119971154237
O	-2.6365788485084742	0.7766351284745764	-7.7950020611542366
O	-5.434691598508474	2.5195457914745765	-5.900630331154237
O	-7.033119008508474	5.800577491474576	-4.9528438511542365
O	-9.532923718508474	7.014298651474576	-2.3727832811542364
O	-6.021073458508474	7.782122961474576	1.4529347888457633
O	-4.765105908508474	9.628381171474576	-1.6631275011542366
O	-3.355113438508474	7.919546851474576	-4.809516741154237
O	-0.9932937385084741	4.942558621474576	-4.687173711154236
O	1.271527061491526	3.9107701214745765	-7.577623971154237
O	3.486739191491526	0.9385348004745764	-8.184321811154238
O	7.1168265914915265	1.7955558114745764	-8.042704471154238
O	10.639350881491527	0.4464197054745763	-8.289125431154238
O	13.584056481491526	1.8555609614745763	-6.364040361154236
O	13.274985881491524	-2.7697760785254237	-4.5855629711542365
O	9.540693381491526	-2.9358877285254237	-5.280785551154237
O	7.718752121491526	-0.02461566152542366	-3.6128524311542365
O	4.343917091491526	1.6540172214745763	-3.4289907811542366
O	4.289161471491526	5.416979341474576	-4.011854271154236
O	1.5541238114915257	7.282273861474576	-2.1858656111542367
O	0.5060555714915258	10.886713991474577	-2.8866259711542366
O	-1.495629218508474	12.880220091474577	-0.37400683895423675
O	0.328470851491526	9.722112471474578	9.002406548845764
O	6.242758721491526	-7.226361038525424	9.064814568845764
O	2.614859621491526	-6.716529088525424	10.220930128845763
O	2.576226671491526	-3.1296397585254234	8.914671418845764
O	3.497711711491526	-1.8336852485254238	5.4379724488457635
O	6.675756511491526	0.07509585447457634	6.3765446888457635
O	3.4185050514915263	14.796126891474577	0.3986000288457633
O	4.804065931491526	11.663439191474577	-1.2083873881542369
O	5.403142521491526	8.504463721474577	0.8218558788457632
O	7.459853381491526	5.517303651474576	-0.26310877225423673
O	6.187149721491526	2.2511857214745765	1.2135557888457633
O	7.284421571491525	-1.3622429485254237	0.9286131188457633
O	5.626026351491526	-3.4806256985254236	-1.6269948011542366
O	5.062873511491526	-7.276160688525424	-1.1677407791542367
O	-0.33599861750847415	-8.775876758525424	-3.0163434511542366
O	-4.136218188508474	-8.564710298525423	-2.7003102911542367
O	-6.164778728508474	-6.467089518525424	-0.23622079915423674
O	-8.509160868508474	-8.442144048525423	2.0046637588457634
O	-11.656352618508475	-6.696334518525424	0.7322620588457632
O	-10.826516548508476	-7.919028868525424	-2.7970738611542365
O	-9.875899888508474	-11.359917508525424	-1.468380661154237
O	-10.676736318508475	-5.446787318525424	5.257608348845763
O	-9.871356068508476	-2.5686507185254235	2.856308208845763
O	-6.886073538508474	-1.6156846185254237	5.092871228845763
O	-5.242636408508474	-5.023044838525424	5.1187171488457635
O	-2.965766618508474	-6.404817978525424	2.3996706788457636
O	-2.2073330685084738	-10.136456308525423	1.9103306288457635
O	1.2943433914915259	-11.131790208525423	0.8459393288457632
O	1.4345705214915259	-12.593448708525424	5.725631108845763
O	-0.9836663025084741	-9.698942798525422	6.361575318845763
O	0.027654601491525987	-6.0614869985254245	6.4031533488457635
O	-1.785497682508474	-3.0461682285254237	7.840412708845763
O	-2.068580227508474	0.07061010447457636	5.6824710488457635
O	-3.4702882485084743	3.6812732914745765	5.7298832688457635
O	-2.7352837485084738	5.238378291474576	9.044711918845763
O	-4.211841738508474	8.494356501474577	7.716510078845763
