16

O	8.05298786480258	81.84027650935607	-1.2595041625818912
O	8.908788554598527	81.29375654825398	-0.35457691496727406
O	8.373105649780612	81.61063836506325	-2.4410000753262837
O	5.146893536393749	82.10682944304597	-1.5487434148350816
O	1.7519131446103282	82.15730761595307	-0.6036395899513898
O	8.508118247469207	81.3418006467497	0.9147671831978348
O	7.2533259471713905	81.57457329812796	1.2572714295767808
O	5.63650541955412	82.66274126015418	3.344187151429943
O	6.3578111694491675	81.99007812633573	0.37028282649669486
O	6.697548496568791	81.89219560252151	-0.936435119875219
O	4.212464208244512	82.2587696135279	0.04157580826889129
O	3.134993396147618	83.08372277921939	-0.06617317883435336
O	2.763176876858313	83.75892060813511	1.0758153775201247
O	3.7012597713849593	83.79033391588342	2.003341476050969
O	4.567989951980715	82.79774106147491	2.0402770831326347
O	5.253538574533744	82.64634011814421	0.7812566559437724
