11

O	-26.99640294630852	87.89039804907632	-11.45514019016801
O	-26.529477763126742	86.88186023616497	-10.957376524892474
O	-28.227178097637317	88.21208327657799	-10.835475172831023
O	-31.62831732893753	89.53309644919551	-12.88408982151978
O	-28.621231795649905	89.13625912974487	-9.973913234879856
O	-29.950817955278474	89.37750730218285	-9.803219600756181
O	-30.70186974664303	89.04316557797475	-10.878539222580109
O	-30.456190498724787	87.79027393931814	-11.286398667356643
O	-29.181275778094076	87.40520649584283	-11.315300292134316
O	-31.627476558413196	89.89758645410306	-11.537450797940249
O	-26.9515383926419	87.98048459534007	-12.824649977347628
