11

O	2.5363407135009766	0.050528205931186676	0.5636751651763916
O	3.281398057937622	0.0030937562696635723	-0.5983088612556458
O	1.0929054021835327	-0.04925968870520592	0.44470781087875366
O	-3.7873730659484863	0.9981973171234131	-0.007227447349578142
O	0.4582659602165222	-0.18730318546295166	-0.770900547504425
O	-0.9093474745750427	-0.2845371961593628	-0.9162772297859192
O	-1.7123099565505981	-0.24478672444820404	0.19489064812660217
O	-1.1099345684051514	-0.1073404997587204	1.4279811382293701
O	0.2592138648033142	-0.010494738817214966	1.5674296617507935
O	-3.2002131938934326	-0.3433026671409607	0.12674398720264435
O	3.0910542011260986	0.17520539462566376	1.6768685579299927
