21

O	1.2669920921325684	1.210810899734497	0.1362200826406479
O	0.7122287154197693	-0.04724511131644249	-0.009110269136726856
O	1.475318193435669	-1.114273190498352	-0.09190217405557632
O	2.8464736938476562	-1.04817533493042	-0.037303145974874496
O	3.390836715698242	0.1935998499393463	0.10495346784591675
O	2.5857949256896973	1.338544249534607	0.19060710072517395
O	3.1088759899139404	2.4807145595550537	0.318359911441803
O	-5.369054317474365	0.9859943985939026	-1.4173411130905151
O	-5.603569984436035	-0.9007620215415955	-0.24248439073562622
O	-5.36888313293457	1.2003265619277954	0.7624301910400391
O	-1.4592640399932861	0.9476417899131775	0.5920450091362
O	-1.5193588733673096	-0.99702388048172	-0.7209060788154602
O	-2.803497791290283	1.0738815069198608	0.5401424765586853
O	-2.8894643783569336	-0.8791593909263611	-0.7891678810119629
O	4.871631622314453	-2.2845981121063232	-0.8916540145874023
O	3.6096315383911133	-2.30879807472229	-0.09847910702228546
O	4.888478755950928	0.44014841318130493	0.19548533856868744
O	5.624576091766357	-0.663856565952301	-1.0312166213989258
O	-0.7408384084701538	-0.10347933322191238	-0.04227067157626152
O	-3.5689339637756348	0.1332765370607376	-0.179314985871315
O	-5.057973384857178	0.34243249893188477	-0.22690361738204956
