21

O	37.8718810980586	-11.015608657613074	-13.288393123271028
O	38.78104815765332	-11.66664798671041	-12.513740973870389
O	39.58596315721805	-12.593671042137622	-13.007145271836393
O	39.612811341402605	-12.831984250126778	-14.231954244244033
O	38.5998261710368	-12.402764895915366	-14.994713431244023
O	37.94858103796368	-11.283733994405832	-14.5904151531465
O	37.102218778635155	-10.767850031240224	-15.298676017831841
O	38.975307603840065	-12.245803342888134	-6.290743579299393
O	37.449870091951446	-10.70080064957707	-6.595066841176591
O	39.39982438727994	-10.145077970763188	-6.39912980951362
O	38.7223710721615	-10.573656934598267	-10.561919031975815
O	39.091248647535195	-12.847524160911366	-10.292015834778118
O	38.80824584341211	-10.3798582921806	-9.24159491574533
O	39.17542240301589	-12.597258100934786	-8.951368512888676
O	39.40948710675156	-14.776402495721275	-14.179503104823015
O	40.34580606495834	-13.86272958865921	-15.056543372632287
O	38.64667886965108	-12.848202123272287	-16.45553370737028
O	39.291285403657106	-14.572365432150704	-15.90637267746093
O	38.67204070726113	-11.81910776474927	-11.06042835031118
O	38.779601545328475	-11.414065057286303	-8.392992808247108
O	38.670180588660266	-11.11652460132824	-6.966677415306602
