79

O	0.636186791534483	-0.540077609758621	-1.1715189008793105
O	-0.7040332664655171	-0.3151616317586209	-1.2327226738793104
O	-1.2250030504655172	0.8798090712413791	-1.0061322808793105
O	-0.5094978884655171	1.8276530262413793	-0.6223156200793105
O	0.8179408715344829	1.7336448862413791	-0.7680502927793105
O	1.359648901534483	0.49047162024137914	-0.7383834679793105
O	2.5685326315344827	0.33981266224137907	-0.7392754475793105
O	-5.159917378465517	-3.723428773758621	-3.9945456408793105
O	-3.420593528465517	-5.057411583758621	-4.03753378087931
O	-4.668191818465517	-5.105089833758621	-2.4279481008793105
O	-1.594749874465517	-2.357573783758621	-1.4397440708793106
O	-2.782123078465517	-0.7508174117586209	-2.6178227608793105
O	-2.463944738465517	-3.304002533758621	-1.8098265908793105
O	-3.644763548465517	-1.7521617037586208	-2.9645425208793106
O	-1.059608649465517	3.1836607162413793	-1.9198037608793106
O	-0.7972188784655171	3.2882621762413793	-0.3703196058793105
O	1.607414151534483	2.9871652562413793	-0.3938524838793105
O	0.23438343153448282	4.081350256241379	-1.1731985968793106
O	-1.6472129054655171	-1.1368688637586208	-1.9959091408793106
O	-3.354634078465517	-3.075366193758621	-2.7819004508793106
O	-4.128899778465517	-4.213452083758621	-3.2719535108793103
O	7.615656971534483	12.54074224624138	-8.93501984087931
O	0.5296371515344829	3.918239826241379	-12.30470483087931
O	4.126467451534483	3.2821078762413793	-11.479044930879311
O	7.895185891534483	1.8215051462413792	5.70192433912069
O	7.520546081534484	0.5517226512413791	2.1623162191206897
O	4.759360081534483	-1.770483093758621	0.9989712491206895
O	3.8767384715344826	-2.624827473758621	-2.5880622608793105
O	1.5743321415344829	-5.485719673758621	-3.4874513908793103
O	0.7007520715344828	-8.127639163758621	-5.976653000879311
O	0.6303013415344829	-10.36472625375862	-2.8596950008793103
O	4.274389721534483	-9.949470753758622	-1.8358075508793106
O	-7.165314458465517	-8.903315453758621	5.68629991912069
O	-6.489550228465516	-10.244341353758621	2.1735542891206894
O	-3.651172008465517	-7.667668683758621	1.9113603291206895
O	-5.909608418465517	-4.661656173758621	2.6598868991206897
O	-6.656651468465517	-1.8753570237586208	0.24321546912068948
O	-10.446153618465516	-2.1363867737586206	0.48035925912068955
O	-10.883231048465516	1.0622442212413792	-1.4999090178793106
O	-8.162345228465517	3.0971132062413793	0.2973465671206895
O	-8.859245808465516	6.751669536241379	1.2255659991206895
O	-8.684495308465516	6.046666006241379	4.958749719120689
O	-10.258575028465517	-0.8897161497586209	4.3458526491206895
O	-6.791899338465518	-1.4001476537586208	5.82620446912069
O	-3.159463578465517	-2.1318408537586206	5.01852219912069
O	-1.3114116164655172	0.803253797241379	3.5493944391206895
O	2.333927471534483	1.8519313762413792	3.86621405912069
O	4.430088671534483	4.6685181662413795	2.4837948891206896
O	9.255345221534483	4.024560216241379	-2.002531200879311
O	7.899800331534484	5.362526586241379	-5.381697180879311
O	4.396614471534482	5.591212406241379	-3.8966323108793106
O	4.505028081534483	1.8721665062413793	-3.0418145808793104
O	5.968048671534483	1.1332443462413793	-6.43764420087931
O	2.5757862115344827	2.246408886241379	-7.813876670879311
O	0.9348584715344828	-0.8772318217586209	-6.31526743087931
O	3.3938657015344833	-3.5486706437586206	-7.381667490879311
O	1.3035317315344828	-4.568375923758621	-10.38970323087931
O	-1.963766843465517	-3.8226555037586207	-8.76160474087931
O	-4.138769278465517	-0.8067852867586209	-7.8387608808793106
O	-3.284365058465517	1.9654623762413792	-10.08014673087931
O	-0.49334958846551713	-0.19807062575862092	-11.481149930879312
O	-3.0656277284655173	-2.581489163758621	-12.917245330879311
O	-2.186438833465517	-3.547185063758621	-16.45672763087931
O	8.794935921534483	-4.117991983758621	-2.7800110608793105
O	8.576773211534483	-4.869369673758621	0.9444816991206895
O	10.436361121534484	-2.661493563758621	3.4632480791206897
O	8.416623051534483	-3.271566283758621	6.597045089120689
O	5.321472901534483	-1.0182370537586207	11.23028686912069
O	3.834258501534483	-0.2982075947586209	14.663017669120691
O	1.796975011534483	2.917546386241379	14.51501456912069
O	-5.335373348465517	15.577886546241379	2.8151369291206896
O	-1.596850109465517	8.847592056241378	9.245374519120688
O	-2.229495268465517	10.58404134624138	5.9361824591206895
O	1.3170240115344831	7.49088001624138	4.1042408091206894
O	0.014856601534482872	5.25687942624138	6.83994884912069
O	-2.718593838465517	2.664553096241379	7.375658719120689
O	-2.990125478465517	-0.046334856758620924	10.041892369120688
O	-6.078584788465516	-2.181593583758621	10.526430869120688
O	-4.499085428465517	-5.282119093758621	12.05533596912069
