14

O	-6.009	0.365	17.862
O	-5.492	1.711	17.875
O	-6.649	2.655	17.632
O	-6.461	3.463	16.344
O	-5.994	2.697	15.212
O	-4.576	2.391	15.138
O	-4.176	1.5	13.981
O	-4.612	2.279	12.753
O	-5.203	3.572	13.244
O	-4.213	4.328	13.973
O	-4.417	5.667	14.438
O	-3.202	6.134	15.213
O	-1.894	5.83	14.486
O	-1.191	4.729	15.111
