14

O	-4.826593399047852	1.904420018196106	0.07828401029109955
O	-4.299770355224609	0.6588074564933777	-0.4200420081615448
O	-4.065727710723877	-0.29811570048332214	0.7526633739471436
O	-3.517359495162964	-1.6058956384658813	0.27271828055381775
O	-2.242631435394287	-1.3205705881118774	-0.4042237102985382
O	-1.2627613544464111	-1.1592885255813599	0.6584824323654175
O	0.10073890537023544	-1.2434226274490356	0.013832866214215755
O	1.1861605644226074	-1.0876532793045044	1.0334644317626953
O	2.5155246257781982	-1.1767381429672241	0.3565423786640167
O	2.728499412536621	-0.1738622784614563	-0.6484687924385071
O	2.0708084106445312	1.0597087144851685	-0.2819030284881592
O	2.6229300498962402	1.6585438251495361	0.9922069311141968
O	4.091774940490723	1.9771084785461426	0.8805797100067139
O	4.898406982421875	0.8069583773612976	0.5968502759933472
