19

O	-17.473220825195312	-31.358875274658203	0.7124795913696289
O	-18.08732032775879	-32.638614654541016	1.1347479820251465
O	-16.2628116607666	-30.849451065063477	1.517930507659912
O	-20.06906509399414	-33.90468978881836	1.4237117767333984
O	-16.622407913208008	-30.615339279174805	2.9018208980560303
O	-15.695897102355957	-29.575035095214844	0.851555347442627
O	-14.484509468078613	-29.24421501159668	1.412452220916748
O	-19.99081039428711	-36.087913513183594	2.157825469970703
O	-15.509053230285645	-29.750919342041016	-0.6751322746276855
O	-15.327287673950195	-28.46417999267578	-1.2564477920532227
O	-16.69831085205078	-30.454517364501953	-1.372467041015625
O	-17.06186294555664	-31.664430618286133	-0.6611113548278809
O	-16.359262466430664	-30.853351593017578	-2.8222265243530273
O	-15.084834098815918	-31.5126895904541	-2.8410282135009766
O	-17.305191040039062	-33.742408752441406	1.5479183197021484
O	-17.944536209106445	-34.92690658569336	1.913529396057129
O	-19.34465789794922	-34.97129821777344	1.8337783813476562
O	-19.476974487304688	-32.748329162597656	1.0617446899414062
O	-20.146928787231445	-31.775775909423828	0.6863341331481934
