78

O	2.147329963391667	2.3118662929166662	-3.3674320145208334
O	-0.9916671966083335	2.170581014916666	1.6512623654791665
O	4.099374263391667	2.613422002916666	4.744254025479167
O	-1.4115579836083334	2.3508865029166657	4.715570125479167
O	2.550081023391667	2.177770397916666	-0.4328574535208335
O	-0.8451064546083333	2.222101483916666	-1.2762074145208335
O	2.5959956033916667	2.0516490239166663	0.9572490054791666
O	1.3642558233916666	2.221649204916666	-1.0942208345208335
O	1.3838906233916666	0.2546996829166659	6.0402205254791665
O	3.183122233391667	2.437671982916666	-5.276271814520833
O	0.23108686439166665	2.264990983916666	0.9024153924791666
O	4.099627503391666	2.539736222916666	-4.386980604520833
O	0.21296084039166657	2.321249512916666	-0.43528400152083346
O	-0.1201889976083334	1.769475521916666	5.493949335479167
O	1.0880060333916666	2.356592652916666	-2.388436594520834
O	1.4255082033916666	2.512651172916666	1.4576260554791665
O	3.5015452233916666	2.405414772916666	-3.2015894845208335
O	2.3432068933916668	1.064203318916666	5.443015685479167
O	-0.2724069066083334	2.309497062916666	-2.5064007345208337
O	2.040884923391667	2.703563292916666	-4.6490331845208335
O	-0.9667145906083334	1.865796829916666	3.053165075479167
O	0.1355752693916666	1.214614060616666	3.513704475479167
O	2.138611893391667	1.8644254689166662	4.1654236754791665
O	0.7180866633916665	1.9612338009166659	4.544554765479167
O	3.0034452833916667	1.502597841916666	6.610920715479167
O	1.0529532733916667	0.23755650291666597	7.475986025479167
O	4.242092563391666	2.1455787029166657	6.083053875479167
O	3.397132003391667	0.30699750291666605	7.430619615479166
O	3.9357393333916666	1.905550769916666	1.5557799854791665
O	2.1447107033916666	2.283172212916666	7.604697155479167
O	-2.2498169566083335	15.311242782916667	-0.12076687152083349
O	-1.9396979966083334	13.443298382916666	3.2365405054791667
O	1.0815942933916665	11.653986882916666	4.623650195479167
O	4.024589883391666	10.212772742916666	2.5544063254791665
O	3.385843433391667	6.677743582916666	2.3004283154791665
O	6.864543023391667	5.568945592916665	0.7959464334791666
O	10.024328043391666	7.3370516329166655	-0.09470452352083347
O	3.934397273391667	8.113796562916667	-2.7644242545208337
O	1.2820874533916666	10.003604482916666	-0.8331595845208335
O	-2.202239946608333	9.227853882916666	0.48817015147916654
O	-4.491750506608334	11.563692382916665	-1.2873270945208335
O	-8.121596606608334	12.521726882916665	-1.6765232845208333
O	-9.139738176608335	8.220789172916666	-1.3682778245208334
O	-6.1818521666083335	7.0252594129166654	-3.4736717745208336
O	-2.327146916608333	6.686084002916666	-3.5474799145208333
O	-0.5686008584083334	9.565258602916666	-5.377775074520833
O	-4.910264116608333	-9.000091317083335	-7.261180994520833
O	-3.0404352266083334	-2.5446891970833336	-7.912682204520833
O	-3.2051374966083332	4.807575792916666	-8.016095464520834
O	-5.430928196608334	2.566053322916666	-6.083906394520834
O	-4.712594626608333	2.899584262916666	-2.3613563045208332
O	-3.933142146608333	-0.3637743070833339	-0.5628888455208335
O	-5.293726916608334	0.17879559291666602	3.0382433654791665
O	-3.3310048566083332	-2.689004997083334	4.660161565479167
O	-0.05073652060833339	-2.025744807083334	3.283532235479167
O	2.987472943391667	-4.071132057083334	2.0880344954791665
O	3.5985607833916666	-7.737143057083335	2.5521698654791667
O	7.215913773391667	-6.456452047083334	3.2805501054791666
O	6.008301283391666	-4.782919067083334	6.396384385479167
O	3.723770143391667	-7.6633935070833346	7.407174215479166
O	6.805834853391667	-9.951255417083335	7.170529335479166
O	8.973468323391666	-7.724864457083335	9.402934145479167
O	6.168540793391666	-7.516132387083335	12.027964295479165
O	5.180943763391666	-11.248554117083334	11.918793395479167
O	7.848699363391667	-4.203368547083334	-1.2780728845208336
O	5.764081503391666	-4.589873247083334	-4.490837344520833
O	3.0330201933916667	-6.730853427083334	-2.8532427145208334
O	0.2576275563916666	-4.651145977083334	-1.2950501145208335
O	-2.7524018966083332	-5.524475597083335	0.8264359634791665
O	-6.398670726608334	-4.6084390170833345	0.17669894647916654
O	-8.973996606608333	-3.9782997770833344	3.003042455479166
O	-6.1651141366083335	-8.580465807083334	3.3648084454791665
O	-6.068753986608334	-9.636872117083334	-0.37490896352083347
O	-2.643675656608333	-9.420260517083333	-2.0884441245208336
O	-2.134054616608333	-6.862971297083334	-4.883532564520833
O	0.8536916833916666	-6.515192347083334	-7.214049214520833
O	2.1523221633916667	-2.9734377070833347	-7.696675304520833
O	5.097445333391667	-1.534309837083334	-9.679565504520834
