30

O	-6.245977534491192	28.69790585280478	77.55845706668775
O	-2.2599028181213594	32.91054305988657	78.75238089053016
O	-2.8501390836473233	31.696325573057067	84.57120428898939
O	-0.36617931974167917	34.56258841267025	80.56438471338403
O	-5.042119553128352	30.10252351038212	79.87571690886908
O	-3.7863197999003657	31.299063544613634	76.83733554061617
O	-4.445677102766149	30.882888188448746	80.8685402011128
O	-4.770261707949449	30.312035133341343	78.5612944241838
O	-2.539901032189047	35.35304343334459	83.4992348898097
O	-7.633920306136454	27.122190989355815	76.99003854830904
O	-3.1701753149315377	31.86123811264813	79.12004328208216
O	-7.554928934086082	27.058606400025383	78.26712712720602
O	-3.8030057657947594	31.143442866427847	78.1834383234667
O	-1.0110918209305213	34.74046603732251	82.0354367851506
O	-5.199376838783306	29.68737714299896	77.4680512153522
O	-3.2935257922672267	31.387488493166668	80.36767413388296
O	-6.75486732580966	28.0546561238528	78.65272165981823
O	-2.737375223435601	34.00639609661459	83.78169259951659
O	-4.630125718635743	30.325501477148553	76.40240240048882
O	-6.569281845018647	27.815664240585267	76.5970088331579
O	-1.7739585274310334	33.83316599457233	79.73801383793753
O	-2.5381845001983305	33.989491453906126	80.85277815686614
O	-2.721065278362806	32.88624462692017	82.75239642346976
O	-1.767189831853175	33.707626606303975	81.98659132939859
O	-2.1530326747936064	33.97417342481155	85.06606487179357
O	-1.659307425059254	36.264389121354206	84.25105928770071
O	-2.569371631941033	32.64387619534358	85.5983110804851
O	-2.7751923931180134	35.04537698548511	85.91565059864946
O	-4.897034838447547	30.637869378395376	82.25083513095827
O	-0.674706523719852	34.3543839197652	85.13167592899785
