30

O	6.262158393859863	-0.9155241847038269	0.4704972207546234
O	0.5487964153289795	0.9867594242095947	0.3046773672103882
O	-8.091727256774902	0.9933080077171326	-1.8036826848983765
O	-1.545249581336975	-0.6882140040397644	-0.7318979501724243
O	3.4213526248931885	-1.8847919702529907	-0.3994235694408417
O	3.424433708190918	1.3056817054748535	0.9130213856697083
O	2.1330413818359375	-2.167539596557617	-0.7294647693634033
O	3.767655611038208	-0.6855433583259583	0.15118227899074554
O	-5.376423358917236	-0.09380501508712769	0.0632653683423996
O	7.919127941131592	-2.3766684532165527	0.14454032480716705
O	1.487044334411621	-0.03013642318546772	0.042260345071554184
O	8.423843383789062	-1.2909810543060303	0.6747552752494812
O	2.8197362422943115	0.2308311015367508	0.3707146942615509
O	-3.1382594108581543	-0.14345839619636536	-0.7755205631256104
O	4.97536563873291	-0.23669786751270294	0.536125659942627
O	1.2041295766830444	-1.2131192684173584	-0.4911373257637024
O	7.4558234214782715	-0.37935692071914673	0.8890382647514343
O	-5.4355292320251465	1.1822997331619263	-0.9201701879501343
O	4.730055332183838	1.0409557819366455	1.0207942724227905
O	6.57463264465332	-2.160845994949341	0.010219084098935127
O	-0.8081880807876587	0.6834444999694824	-0.04581339284777641
O	-1.8612314462661743	1.517716884613037	0.11990956962108612
O	-4.309891223907471	1.9792509078979492	-0.10673326998949051
O	-3.078824520111084	1.0879144668579102	-0.2605428993701935
O	-6.644115924835205	1.8740389347076416	-0.11169467121362686
O	-5.755324840545654	-1.20222008228302	-0.9081193208694458
O	-7.838082790374756	1.014406681060791	-0.45325902104377747
O	-6.725229263305664	3.2566418647766113	-0.673153281211853
O	1.7412900924682617	-3.476397752761841	-1.3326623439788818
O	-6.280409336090088	1.7920504808425903	1.3179324865341187
