22

O	-38.396387081052275	-63.56705479233849	-49.97925994007025
O	-38.315507966234414	-62.22623279798302	-50.2280596447037
O	-37.48309561211144	-62.133850771477476	-51.130643472774544
O	-39.38441112263648	-61.15060317435293	-50.29110244184687
O	-38.98145956117401	-60.06055292449368	-50.92412860181031
O	-40.24190637948154	-60.20837048808162	-49.77449703998722
O	-40.477869932174585	-60.72086448966465	-48.75077057995162
O	-41.188981980358705	-61.828427600655985	-48.835724032844524
O	-42.305777052870944	-61.747246301580745	-49.52830653296214
O	-40.560004004778925	-62.86655267318692	-49.503699531537656
O	-40.40769637999649	-63.71043610627842	-48.65521847397266
O	-40.27081022806375	-62.0482648456594	-50.60734838705333
O	-39.7388551941743	-59.783191345753536	-47.93143355167355
O	-38.50292024775172	-59.79386788467123	-48.21562676849404
O	-37.46201989040199	-60.8004889176806	-48.2393854398627
O	-38.22202883572379	-61.805303486530114	-47.69473587324854
O	-39.10015162216539	-61.46560402187535	-46.828456180022776
O	-39.944100458136106	-62.312309678507575	-46.2283790121125
O	-41.03140465835126	-61.69084484695468	-45.79777957801836
O	-40.757461011807294	-60.485377312412105	-45.252778812109234
O	-39.495160441810604	-60.21275112934557	-44.92679692947562
O	-38.75500359201055	-60.43593427924681	-46.00079431026396
