22

O	-37.919	-62.907	-52.359
O	-37.728	-61.687	-52.001
O	-36.597	-61.107	-51.923
O	-38.952	-60.816	-51.635
O	-39.028	-59.636	-52.502
O	-38.756	-60.522	-50.268
O	-39.833	-60.274	-49.393
O	-41.331	-60.496	-49.765
O	-42.278	-59.493	-49.222
O	-41.461	-60.647	-51.294
O	-42.686	-61.292	-51.642
O	-40.304	-61.527	-51.791
O	-39.361	-60.137	-48.101
O	-40.046	-59.934	-46.929
O	-39.105	-59.731	-45.932
O	-39.171	-60.577	-44.865
O	-38.043	-61.009	-44.249
O	-36.825	-61.131	-44.898
O	-35.689	-61.626	-44.226
O	-35.821	-62.026	-42.901
O	-37.069	-61.91	-42.242
O	-38.18	-61.406	-42.915
