10

O	-1.8921965164116976	-2.882695016707329	-17.22861913358359
O	-2.3082615745875117	-4.267025994825053	-17.151992323257858
O	-3.6801552772807242	-4.651637041782191	-17.33422625022486
O	-4.2123998336730075	-6.011164026667015	-16.881619217205202
O	-5.168088397960417	-6.79953208457137	-17.67709947909583
O	-5.973027877983047	-7.990335319138988	-17.136386454520892
O	-7.179344090090748	-8.342650992192803	-17.881086188954825
O	-8.092681897375815	-9.337955738430574	-17.297542865690293
O	-1.738376456338325	-2.1045404136240613	-18.35443905737728
O	-1.2287059106265197	-2.443820616558428	-16.22528488987037
