38

O	-4.392741888595299	20.83243181978023	14.030361382255666
O	-4.816951372879932	20.378432769265114	15.388969020922762
O	-5.400377127709178	21.29104805144119	16.20688704597191
O	-3.4758635611846502	19.759499001591664	15.830324437333639
O	-2.7721059216518613	20.94282287904034	16.134667099539055
O	-2.815657419153295	19.027113950259942	14.652697946706677
O	-8.803021103831533	21.31263328953419	9.719274126565393
O	-7.110907177556351	19.944258583059895	11.748697306512609
O	-6.294755717544006	19.734727335778416	12.8126591923047
O	-5.55524780550487	20.8359869197109	13.12175038127495
O	-6.027563524321327	21.770637325628535	12.25724627637569
O	-6.877671014219737	21.20485729329478	11.316884702317349
O	-3.35480121902736	19.96734314012959	13.729163918452535
O	-2.283806671271415	17.47659484139695	14.652951566848415
O	-1.920116386937673	16.52704504881499	13.752259859458457
O	-1.1645528821249547	15.239206087244984	14.033343947141011
O	-2.224095111099752	14.395928029128179	14.474709043067852
O	-1.465005912777697	13.27932475550897	14.083704821267542
O	-1.6253331685877472	12.841876698735055	12.92781413308928
O	-0.22957857240730803	13.110450604205113	14.8724475299477
O	-0.5361132815063253	12.076027556379056	15.772937125965468
O	0.5616619646954556	11.606486422829907	16.416486539948778
O	1.7997181042087211	11.91755054997326	15.932971546221024
O	0.1465982625009967	10.24130289566204	16.89786623286613
O	-0.004840337932686262	9.947390162226306	18.199790835289793
O	0.8624148623700638	8.98632185079646	18.71803255239935
O	0.5888656578139054	9.240807561236954	16.09350508166318
O	1.2845990909638467	8.149551810695556	16.61743222794642
O	1.6886734818517768	8.256926030158812	17.90981910736446
O	2.9150013994725317	7.809853735013627	18.22954283628569
O	1.0353710947580352	13.353411226478666	14.338189992197977
O	1.2563477937600473	14.573231221170637	13.679957106396811
O	2.1129031522659965	12.801581245184074	14.938262535603418
O	3.2097135577899256	12.66514760349498	14.10982566081434
O	-7.595099530927895	21.957835002860143	10.377676188552567
O	-7.485429176528301	23.299948901300553	10.567329896883837
O	-6.439400670743471	23.79740246791121	11.288136648254685
O	-5.852049511433644	23.08477607851769	12.281706080155324
