38

O	-4.230258464813232	-0.6737900376319885	-0.7928349375724792
O	-3.255385398864746	0.2915060222148895	-1.8646893501281738
O	-2.473304271697998	-0.9393343329429626	-2.233259916305542
O	-2.2335147857666016	0.8997642993927002	-0.6562924981117249
O	-0.9103431105613708	0.45739802718162537	-1.204408049583435
O	-2.5565078258514404	-0.514587938785553	0.28319334983825684
O	-10.230956077575684	0.7009885311126709	-1.5202168226242065
O	-7.233580589294434	1.2930136919021606	-1.7602120637893677
O	-5.879868030548096	1.1290295124053955	-1.665418267250061
O	-5.5817975997924805	-0.0047572217881679535	-1.1272797584533691
O	-6.735336780548096	-0.6162788271903992	-0.8540545105934143
O	-7.797800064086914	0.1860591471195221	-1.2459286451339722
O	-3.9465153217315674	0.17198002338409424	0.44512662291526794
O	-1.934023141860962	0.1880938708782196	1.6291872262954712
O	-0.70374995470047	-0.3153347074985504	1.8814674615859985
O	0.12711095809936523	0.11930257827043533	3.0370547771453857
O	1.3833461999893188	0.686089038848877	2.653088331222534
O	2.38150691986084	-0.010046896524727345	1.9092087745666504
O	2.0948076248168945	-1.1873456239700317	1.5958410501480103
O	3.639385938644409	0.6399869322776794	1.5560332536697388
O	4.624711513519287	-0.009108884260058403	0.8368045091629028
O	5.819356441497803	0.6090028882026672	0.5012423396110535
O	5.989935398101807	1.9107095003128052	0.9168322086334229
O	6.81289005279541	-0.14055851101875305	-0.2595541477203369
O	6.967710971832275	-1.5067037343978882	-0.13198314607143402
O	7.909465312957764	-2.2110776901245117	-0.8556627631187439
O	7.664823055267334	0.46336033940315247	-1.158840298652649
O	8.607545852661133	-0.23524166643619537	-1.8846384286880493
O	8.757568359375	-1.5969839096069336	-1.7536019086837769
O	9.68541431427002	-2.3035342693328857	-2.464409589767456
O	3.8932316303253174	1.9393799304962158	1.9309145212173462
O	2.8993630409240723	2.5895493030548096	2.654632806777954
O	5.055962085723877	2.616032123565674	1.6331411600112915
O	5.28509521484375	3.924381732940674	2.023552179336548
O	-9.115655899047852	-0.18679988384246826	-1.0872231721878052
O	-9.352165222167969	-1.3804689645767212	-0.5278520584106445
O	-8.35249137878418	-2.1844561100006104	-0.13612431287765503
O	-7.075976371765137	-1.795440912246704	-0.3028358817100525
