20

O	-0.20814703253269418	-5.966204181151867	-5.167098963344493
O	-1.6163451754241067	-6.028167978374288	-4.5926153324604675
O	-1.3988811076267536	-7.368204328114239	-3.9146925018640424
O	-1.9741967725957452	-4.7523682037570385	-3.5447674174908963
O	-1.3212318355288706	-3.5514085116323657	-3.885251287228952
O	-2.258233612104995	-2.6017830171165337	-4.451114893851098
O	-3.225371435781426	-2.209307163712862	-3.768166391321526
O	-1.9494484040764182	-2.2002010326478505	-5.763562800383072
O	-2.5937562100085456	-1.0691335535771134	-6.167016917968271
O	-1.6526870841116672	-4.826688424461315	-2.1625199393241212
O	-2.49332716079261	-4.0648314152330896	-1.19699862854457
O	-1.6784445496208207	-3.3038464561466343	-0.3663709847156795
O	-2.886629051659292	-6.095972003039876	-5.810159008439424
O	-3.816299570134021	-5.078195161372638	-5.995610941064802
O	-5.031599254578511	-5.460469169915475	-6.612531794577315
O	-5.130087499028525	-6.392156567089815	-7.655747683096366
O	-3.9075274783971183	-6.962003800081549	-7.774064732834649
O	-2.746359509366809	-6.62321620612426	-7.051916830283079
O	-6.267860400216591	-6.7719305040801405	-8.325469589162843
O	-7.026360139137273	-6.003404381158912	-9.20688972935871
