20

O	-0.3661617040634155	1.6036150455474854	2.272305965423584
O	-0.40861085057258606	0.4189598560333252	1.3659305572509766
O	-0.8859509229660034	-0.7599030137062073	2.1628353595733643
O	-1.5572566986083984	0.7394401431083679	0.12376557290554047
O	-1.770827054977417	-0.37269890308380127	-0.7450319528579712
O	-2.870422840118408	-1.2128353118896484	-0.21594470739364624
O	-3.457853078842163	-0.8997433185577393	0.8467801809310913
O	-3.3002190589904785	-2.392901659011841	-0.8811292052268982
O	-4.314841270446777	-3.129629373550415	-0.35350728034973145
O	-1.265579104423523	1.9702303409576416	-0.5782339572906494
O	-1.9648354053497314	3.1006741523742676	0.10656677186489105
O	-3.3293395042419434	2.9846651554107666	0.16050174832344055
O	1.1668330430984497	0.04412365332245827	0.6983819007873535
O	2.1024105548858643	1.0410282611846924	0.45515158772468567
O	3.3422913551330566	0.7436479926109314	-0.07052040845155716
O	3.707449197769165	-0.549694299697876	-0.37681251764297485
O	2.787700653076172	-1.5491113662719727	-0.14013314247131348
O	1.5562289953231812	-1.241209626197815	0.3835534453392029
O	4.961444854736328	-0.7917694449424744	-0.901105523109436
O	5.867538928985596	0.2531113922595978	-1.1267107725143433
