42

O	-5.41663122177124	5.296011924743652	0.6205812096595764
O	-4.121288776397705	5.098776340484619	0.533139705657959
O	-6.015893459320068	3.6881206035614014	0.41594579815864563
O	-3.63716983795166	3.9172146320343018	0.34067508578300476
O	-4.521770000457764	2.8829870223999023	0.231807678937912
O	-4.0963263511657715	1.5749417543411255	0.023180076852440834
O	-2.7611992359161377	1.2347428798675537	-0.08712174743413925
O	-1.8922885656356812	2.290203332901001	0.025925379246473312
O	-2.277132987976074	3.5798676013946533	0.23006558418273926
O	-2.173352003097534	-0.37668392062187195	-0.3462573289871216
O	-1.4959707260131836	-0.5941768288612366	-1.6290348768234253
O	-3.416188955307007	-1.1106175184249878	-0.8707722425460815
O	-1.8814809322357178	-1.2658509016036987	0.9820501804351807
O	-3.04052734375	-1.5168830156326294	1.8312699794769287
O	-3.7819182872772217	-2.759551525115967	1.5990440845489502
O	-3.0927035808563232	-4.055853366851807	1.7389580011367798
O	-4.912662982940674	-2.789116144180298	0.6492947936058044
O	-0.9662494659423828	-2.3236331939697266	1.0744978189468384
O	0.39538341760635376	-1.5316522121429443	1.4679861068725586
O	-6.048516273498535	-1.8422150611877441	1.002138614654541
O	1.1804203987121582	-2.799947500228882	1.5503151416778564
O	0.848961591720581	-1.030322551727295	-0.10727499425411224
O	-2.5130093097686768	-4.336763858795166	3.0966029167175293
O	2.3658862113952637	-0.9157484173774719	0.09185957908630371
O	2.8766117095947266	0.14245058596134186	0.8679467439651489
O	2.070017099380493	0.9076023101806641	1.3373451232910156
O	4.172847270965576	0.40439456701278687	1.1512656211853027
O	4.512462615966797	1.5966131687164307	1.9882549047470093
O	6.127354145050049	1.4788544178009033	2.1675095558166504
O	6.3390793800354	0.9073905944824219	1.0616565942764282
O	6.014125347137451	1.8841512203216553	-0.031190961599349976
O	5.039912700653076	0.968631386756897	-0.7452259659767151
O	4.359476089477539	2.0143871307373047	-1.4089654684066772
O	3.635611057281494	2.41280198097229	-0.19381535053253174
O	4.815859794616699	2.7312893867492676	0.8070462942123413
O	1.0179662704467773	-2.4774599075317383	-0.8110978603363037
O	2.798388719558716	-2.308938980102539	-2.345780372619629
O	3.436615228652954	-2.189147710800171	-3.5505764484405518
O	2.6702380180358887	-2.091841459274292	-4.675230026245117
O	1.2868280410766602	-2.1156134605407715	-4.581395626068115
O	0.6825170516967773	-2.239238739013672	-3.3316006660461426
O	1.4157180786132812	-2.3401758670806885	-2.171022653579712
