79

O	0.3565594035434778	-5.035841521021739	1.5380688762195653
O	-0.6949017744565221	-5.174669071021739	2.542953058219565
O	-1.1220734204565224	-3.7516530910217387	2.446362608219565
O	-0.12304066445652218	-2.948968731021739	1.9509622912195652
O	0.8821701995434779	-3.6407843610217387	1.3302936265195653
O	2.362250259543478	-3.289357151021739	1.5193719332195652
O	-1.1133545004565222	-3.398158541021739	3.8770950882195656
O	1.4420297295434776	-5.784855141021739	1.9496481122195652
O	-1.7294514704565223	-6.047659351021739	2.3471108582195654
O	3.036169269543478	-2.282690101021739	1.0536581492195654
O	-0.09043680345652219	-3.420099961021739	4.7576235482195655
O	-0.7081441244565222	-3.072491651021739	5.921827158219565
O	4.526137939543478	-2.487377431021739	0.4462621382195653
O	4.993656659543478	-3.3848976310217394	1.5070660512195653
O	5.363969189543478	-2.759008411021739	2.7633200582195654
O	6.714653109543478	-2.107164331021739	2.5376732782195655
O	6.447099589543478	-0.9549882830217391	1.8230960462195651
O	7.7264861695434774	-0.48969515102173916	1.3859768472195653
O	8.77856749954348	-0.5223896590217392	2.256816002219565
O	8.857698629543478	-1.3472663790217392	3.4334791882195654
O	7.783963249543477	-2.2571507510217392	3.407004298219565
O	10.246911829543478	-1.7494629110217392	3.6380590282195655
O	5.290031269543478	-0.3440789240217392	1.4540226352195653
O	7.599716629543478	0.007926871978260808	0.10329886821956524
O	4.420697899543478	-2.106345521021739	3.2869269382195654
O	11.317564429543479	-0.9647047780217392	3.1858123382195656
O	10.707008029543479	-2.5630135110217394	4.484034218219565
O	-2.1871547204565225	-2.787834311021739	4.369920588219565
O	-1.9895646904565223	-2.7382933510217393	5.714382438219565
O	-3.160849520456522	-2.5554183110217394	6.453352588219565
O	-4.013479860456522	-1.6611188080217392	5.880997498219565
O	-4.317903960456523	-1.880846671021739	4.6000370682195655
O	-3.4528413304565224	-2.6374238710217393	3.8757179782195657
O	4.524808539543478	-17.12759608102174	-1.9449792117804348
O	3.0563446895434776	-12.61059838102174	-4.385794551780435
O	8.788595479543478	-6.4781178510217385	-3.8013092517804346
O	7.151623989543478	-3.3539473610217394	-2.362775191780435
O	5.296090229543478	-1.9669564510217392	-5.227585701780435
O	5.705186109543478	1.7433778789782608	-5.650802761780435
O	7.8726501195434775	1.0305368989782608	-8.560846861780433
O	-9.606138680456521	5.245014988978261	-2.3357476817804343
O	-6.426598330456522	3.2217016589782608	-1.9975506417804347
O	-5.173171000456522	2.0385082189782606	1.3670590051195652
O	-3.108276550456522	-0.9441442260217392	0.8397527022195652
O	-3.568281380456522	-2.968127141021739	-2.373268271780435
O	-0.7168906704565221	-5.434469331021739	-1.9142495517804348
O	-0.43922839045652223	-7.185293181021739	-5.358438721780435
O	-2.327356760456522	-4.5045641310217395	-7.091332761780435
O	0.4868849785434778	-2.614394641021739	-8.847847611780434
O	-0.7485207124565222	0.7706194989782609	-7.769081151780434
O	-4.388366220456522	-0.26546007602173916	-8.363235361780434
O	-11.892853370456521	1.354209078978261	-4.089182001780435
O	-8.902097330456522	-0.47206450002173916	-2.620164481780435
O	-8.573655360456522	-1.831831851021739	0.9376167402195652
O	-6.4568470104565225	-4.886704851021739	1.6199518132195654
O	-6.514218050456522	-6.752051641021739	5.011634088219565
O	-4.506579170456522	-9.786076091021739	3.8322680382195653
O	-3.031882120456522	-10.16794157102174	-1.2254994517804347
O	-10.615302470456522	-5.874204221021739	5.703494678219565
O	-8.639763300456522	-3.4584713110217393	7.912294428219565
O	-9.03350299045652	0.1630524249782609	6.825554788219565
O	-3.496259890456522	6.865768108978261	-2.126016061780435
O	-1.7628425004565222	5.833238088978261	1.1271643422195652
O	0.7558863535434779	2.960549028978261	0.9589330592195653
O	-0.3262715904565222	0.7285083189782608	3.8187858682195657
O	1.3382918795434777	0.6467266989782607	7.270889408219565
O	2.9913902895434776	3.8509495989782607	7.796313948219565
O	1.6817897295434778	4.388989828978261	11.338181288219566
O	-1.8292005404565224	4.160530088978261	9.891551278219566
O	-1.5567192104565222	7.093183728978261	7.526716008219565
O	1.1844176495434777	9.27410294897826	0.18384223821956525
O	4.076951879543477	6.912865148978261	-0.6261719817804348
O	7.167797369543478	6.570127688978261	1.4734766272195652
O	7.166249509543478	9.83833811897826	3.2102119482195652
O	10.497384629543479	4.328982488978261	5.586378018219565
O	5.503607889543478	8.55409545897826	7.973257828219565
O	13.865040929543479	6.676441968978261	-5.173027061780435
O	12.836151829543478	3.710003758978261	-3.179471011780435
O	11.693679529543479	0.7225931689782608	-5.180950801780435
