33

O	-20.031	30.877	13.189
O	-18.611	31.454	13.401
O	-17.733	30.167	13.509
O	-18.284	29.389	12.428
O	-19.666	29.752	12.153
O	-19.822	30.271	10.765
O	-16.334	30.335	13.222
O	-20.567	30.258	14.345
O	-18.543	32.257	14.586
O	-20.629	29.66	9.915
O	-15.726	31.298	12.344
O	-15.343	29.554	13.734
O	-14.191	30.056	13.143
O	-14.422	31.123	12.299
O	-12.84	29.492	13.376
O	-20.82	30.156	8.479
O	-21.761	29.276	7.791
O	-22.562	29.731	6.826
O	-23.645	28.876	6.225
O	-23.67	27.475	6.497
O	-24.755	26.757	5.93
O	-25.711	27.322	5.135
O	-25.661	28.739	4.945
O	-24.607	29.52	5.473
O	-26.667	29.378	4.141
O	-22.719	26.828	7.159
O	-24.801	25.395	6.127
O	-22.396	30.93	6.402
O	-12.03	29.473	12.311
O	-12.091	30.13	14.286
O	-12.759	28.162	13.592
O	-27.502	28.755	3.529
O	-26.624	30.593	4.093
