31

O	36.71301626527767	-3.3104607913677713	-14.469192459685173
O	36.131101423305395	-1.9993904967682314	-14.564143463098876
O	36.0953289537569	-1.6297082738751854	-13.267904008234167
O	37.05124850958849	-2.3683169184415873	-12.604899024816664
O	36.61710371200976	-3.548786968520226	-13.060755083465494
O	35.20969854802742	-3.3382636982545666	-12.752978949237773
O	36.26457398406786	-0.4493597972784693	-12.780399457635383
O	38.01966200415679	-3.5999249438143073	-14.713473942024882
O	35.17321381898105	-1.9899881170068496	-15.49260543785736
O	34.28710561623379	-2.3653684482008384	-12.306537589859984
O	33.52407538677202	-3.731740972182867	-11.741216970475039
O	34.15636682878052	-3.7943224030272136	-10.554783042405846
O	35.234693901841695	-2.9904222080044813	-10.46932689521067
O	36.40599751799923	-3.5705463004729956	-9.859674761385861
O	36.59058408488501	-4.710676315705942	-10.64997235074334
O	37.874110240770186	-5.137929593557792	-10.617831554104013
O	38.8042341826216	-4.248622792787142	-9.928426997957772
O	38.59713228354612	-2.9350586840369477	-9.39582107720559
O	37.3100725659652	-2.502754204959742	-9.59654559412305
O	39.387062798363814	-2.33865358644323	-8.353938411780327
O	35.60630922584387	-5.638687535718548	-10.87725534101258
O	38.16767161067964	-5.988027413374352	-11.65178117152174
O	34.990309918739655	-1.734523349381623	-10.51603044699033
O	39.55877637728066	-2.7491167029151216	-7.032933400347136
O	39.71738382983071	-1.1182745207826597	-8.404931844710084
O	35.591041140388505	0.6657340964690204	-12.923024267076956
O	35.33038471024173	1.0689505271446351	-11.599573457830017
O	36.37255422058039	1.4322997935886703	-10.926043327128586
O	37.54059462155494	-0.08217715236716883	-12.26621231506139
O	37.464570092285186	0.547714529504804	-11.00094057403869
O	36.85926836654482	2.6601699763008857	-10.75386048460197
