31

O	36.819	-2.242	-13.302
O	36.725	-0.731	-13.5
O	35.187	-0.493	-13.534
O	34.777	-1.284	-12.381
O	35.682	-2.377	-12.196
O	36.303	-2.304	-10.847
O	34.679	0.825	-13.368
O	36.414	-2.926	-14.495
O	37.307	-0.189	-14.715
O	35.955	-3.094	-9.853
O	36.567	-3.027	-8.494
O	36.341	-4.277	-7.823
O	37.123	-4.735	-6.852
O	36.905	-6.07	-6.272
O	35.709	-6.837	-6.506
O	35.664	-8.119	-5.917
O	36.661	-8.702	-5.141
O	37.853	-7.9	-4.991
O	37.906	-6.619	-5.553
O	38.915	-8.46	-4.178
O	34.711	-6.338	-7.177
O	34.48	-8.83	-6.131
O	38.08	-3.991	-6.433
O	38.74	-9.452	-3.553
O	39.989	-7.882	-4.162
O	35.291	1.681	-12.395
O	34.829	2.954	-12.177
O	33.738	3.499	-12.963
O	33.593	1.329	-14.055
O	33.108	2.566	-13.925
O	33.406	4.672	-12.858
