31

O	-1.1134182214736938	1.5480782985687256	0.3853335678577423
O	-2.3254292011260986	0.45537593960762024	0.8357905745506287
O	-3.514477491378784	1.578618049621582	0.23675549030303955
O	-2.9567689895629883	1.0799113512039185	-1.136367678642273
O	-1.903805136680603	2.1554126739501953	-1.0333445072174072
O	-0.869365930557251	1.4286577701568604	-2.0769262313842773
O	-4.693296909332275	0.5233914852142334	0.22028101980686188
O	-1.622109293937683	2.740293264389038	1.1640956401824951
O	-2.460773229598999	0.8357269167900085	2.2823314666748047
O	-0.6099749803543091	0.17483966052532196	-1.8638466596603394
O	0.316298246383667	-0.6013695001602173	-2.7428722381591797
O	1.4327589273452759	-1.114170789718628	-1.978887915611267
O	2.2540013790130615	-0.16022655367851257	-1.331543207168579
O	3.4095582962036133	-0.5338342785835266	-0.5307311415672302
O	3.686671733856201	-1.880954384803772	-0.419357568025589
O	4.782375335693359	-2.233848810195923	0.3400712311267853
O	5.557146072387695	-1.2716609239578247	0.9547954201698303
O	5.287813186645508	0.07774187624454498	0.8491213917732239
O	4.189785957336426	0.41978633403778076	0.08733731508255005
O	6.09653902053833	1.0626755952835083	1.4895339012145996
O	2.893151044845581	-2.845231771469116	-1.0475988388061523
O	5.071014881134033	-3.601095676422119	0.45837798714637756
O	1.988691806793213	1.0612151622772217	-1.4425634145736694
O	7.0869035720825195	0.7604082226753235	2.1769988536834717
O	5.782952308654785	2.389867067337036	1.3508684635162354
O	-5.90192985534668	1.0263372659683228	0.5258052349090576
O	-7.036814212799072	0.21962445974349976	0.5526878833770752
O	-6.854989051818848	-1.1114956140518188	0.25150755047798157
O	-4.520924091339111	-0.7057966589927673	-0.05859486758708954
O	-5.593800067901611	-1.5637738704681396	-0.05255923420190811
O	-7.857785224914551	-1.914502739906311	0.25692763924598694
