50

O	2.789	8.636	16.129
O	3.14	8.181	14.863
O	4.718	7.555	14.943
O	4.847	7.915	16.613
O	3.759	8.48	17.115
O	2.335	8.209	13.632
O	2.62	7.087	12.757
O	1.677	6.956	11.786
O	0.595	7.51	11.861
O	2.165	6.153	10.792
O	1.386	6.074	9.513
O	1.335	4.609	9.02
O	0.481	3.689	9.894
O	-0.978	4.164	10.074
O	2.026	7.026	8.458
O	1.945	8.483	8.842
O	0.752	9.189	8.602
O	0.666	10.553	8.971
O	1.758	11.191	9.57
O	2.931	10.483	9.812
O	3.036	9.129	9.44
O	2.662	4.094	8.874
O	-1.804	3.244	10.999
O	-2.192	1.875	10.472
O	-3.268	1.677	9.616
O	-3.621	0.405	9.162
O	-2.869	-0.698	9.6
O	-1.792	-0.533	10.442
O	-1.457	0.75	10.873
O	-1.544	4.265	8.718
O	-4.244	4.326	7.075
O	-3.043	5.197	7.036
O	-2.51	5.212	8.488
O	-2.916	5.949	9.376
O	-3.398	6.657	6.656
O	-2.135	7.512	6.651
O	-4.049	6.661	5.257
O	-4.4	3.398	6.059
O	-5.573	2.643	6.126
O	-5.852	1.72	5.029
O	-3.611	3.333	5.119
O	-6.112	0.321	5.488
O	-5.126	-0.568	5.842
O	-5.839	-2.045	6.317
O	-7.399	-1.407	6.024
O	-7.394	-0.188	5.584
O	-8.587	-2.304	6.29
O	-9.081	-2.971	5.023
O	-8.279	-3.308	7.407
O	-6.59	2.806	7.159
