111

O	-0.22678646249180323	1.2806081029295084	6.434428462327868
O	0.3484990125081968	0.051359521929508434	6.553309282327868
O	0.4846700425081969	0.01880048192950845	8.273071652327868
O	0.6980923525081968	1.6697021869295086	8.569466502327868
O	0.19723655250819672	2.0985685969295087	7.415869932327868
O	0.6820253925081967	-0.6528066580704914	5.3425079523278685
O	0.5841736125081969	-0.12042742807049156	4.212861852327869
O	1.2026996125081968	-0.2799041980704915	3.0393431023278685
O	2.339721612508197	-0.09078790807049142	2.6607874323278686
O	0.5117316525081967	0.33713558992950854	1.9327908323278686
O	-0.07639159149180319	-0.5905515980704914	1.1120702134278686
O	-0.6425949784918032	0.25251901092950846	0.07707803232786858
O	-2.1152265974918034	0.3213530189295085	0.0007276223278687155
O	-2.526373297491803	-0.2184731580704915	1.4088829783278687
O	0.6507022125081967	-1.8251783780704915	1.2893990443278687
O	1.0204662625081968	-2.4802025080704917	2.6141610323278686
O	0.6415034025081967	-3.8216776480704917	2.4698114923278687
O	0.9616900825081969	-4.9263411780704915	3.1748423223278683
O	1.6465516325081968	-4.685261708070492	4.3288921223278685
O	2.1836268725081966	-3.451626468070492	4.426258152327868
O	2.195147362508197	-2.6874125480704913	3.3322027923278688
O	-0.5579831974918033	1.5858764399295084	-0.02034793767213139
O	-1.7148375694918032	-0.9179812380704915	2.4096636623278687
O	-1.8933777154918032	-1.8028473480704914	3.4421946923278686
O	-1.9484872974918033	-1.5305201580704915	4.805947672327869
O	-1.6085677504918032	-2.3925452380704915	5.841715622327868
O	-1.0443289124918032	-3.558708328070492	5.462368072327869
O	-1.7326261114918031	-4.0761413280704915	4.368178592327869
O	-1.9478743374918033	-3.1923289480704913	3.3474900723278687
O	-2.3610394774918033	1.0773383991295085	1.9610461093278686
O	-0.9661783640918031	2.5799111019295085	2.923278792327869
O	-1.882877761491803	3.4143208819295086	2.1108193483278685
O	-2.652038167491803	2.3577577619295083	1.5123606463278687
O	-3.3925048674918035	2.5062231419295085	0.5753251393278687
O	-1.2452403104918033	4.428903901929509	1.2930765813278686
O	-2.289883347491803	4.9397536119295085	0.34488589732786856
O	-0.6799337024918032	5.340444361929508	2.3114083323278685
O	0.29956175250819683	2.8251952419295083	2.9540226523278683
O	0.8918710925081967	2.5535445219295085	4.121168182327868
O	2.1661135525081967	2.2362376419295087	4.585275372327868
O	0.8164645425081969	3.1793275619295085	1.9389871583278686
O	2.950622652508197	1.2308996989295085	5.294107562327868
O	3.1733634125081966	1.7946891899295085	6.502399662327869
O	3.7468567425081964	0.4656828209295085	7.233139312327868
O	3.4932420725081963	-0.8661893580704916	6.168540842327868
O	3.306537132508197	-0.062043458070491386	5.215711232327869
O	3.2710046325081965	-1.9942799780704914	7.075650432327868
O	1.9966238725081966	-2.5435409880704913	7.404378012327868
O	3.4856990325081965	-1.6544729180704913	8.56189964232787
O	0.4910000525081968	3.7115044719295085	5.0137118623278685
O	11.705598472508196	-5.128505778070491	3.4550868423278684
O	8.350664872508197	-4.1862502580704914	4.718304832327869
O	6.590052822508197	-5.358776208070491	1.6168066813278685
O	7.517929442508196	-7.589537448070491	-1.4182711976721316
O	1.818251752508197	-7.831758768070491	-3.2874741876721316
O	2.150068082508197	-5.725614878070491	-6.481105007672132
O	0.9156830725081968	-2.2369684180704916	-5.579276717672132
O	1.280880632508197	0.7722457329295085	-7.849724637672132
O	-0.7392491874918032	2.6819279119295087	-5.164733547672132
O	-3.9945062374918034	0.8523504849295085	-5.475663437672131
O	-6.004686277491803	-0.6730641980704914	-8.276126227672131
O	-7.713996227491803	-3.814482578070492	-7.058334907672132
O	-6.5012358074918035	-7.365265288070491	-7.724257457672131
O	-7.9530149774918035	-9.133969948070492	-4.727017417672132
O	-7.1898789374918035	-12.48685524807049	-3.1755627976721312
O	-11.720476527491803	-0.9773075980704915	-0.5772516576721314
O	-10.431870907491803	1.0819514302295086	2.2946648223278685
O	-6.735287627491803	1.8757796029295086	2.5888026523278684
O	-4.941240247491804	4.8222562819295085	4.094429362327869
O	-4.305709727491803	2.7645302919295087	7.049068582327869
O	-7.7544860174918036	2.0290869709295087	7.864855622327869
O	-7.594339797491803	-1.5465933480704916	6.737813652327868
O	-10.102093747491804	-2.886474948070491	4.262025182327869
O	-9.767978127491803	-6.684436718070492	8.085832672327868
O	-7.497323027491803	-7.911240668070491	10.828762482327868
O	-4.330056537491803	-6.682486588070492	9.448538192327868
O	-4.710832627491803	-8.913765648070491	6.315322332327868
O	-5.582295967491803	-11.871161048070492	8.397989412327869
O	-2.523229067491803	-11.437633948070491	10.574505912327869
O	-0.13840093649180318	-11.534731648070492	7.632209562327868
O	0.5488036025081968	-11.948426248070492	1.6340010023278686
O	-3.6370221474918027	-10.777594448070491	-1.8661936276721314
O	-2.8747235574918033	-7.620520448070492	-3.8522259376721317
O	-2.308315507491803	-6.900314878070491	-7.517960737672132
O	-3.0541862874918033	-3.2013095080704916	-8.100588367672131
O	-9.392254257491803	3.7793163019295086	-8.531173327672132
O	-10.696913987491804	0.23922609292950847	-8.995176937672131
O	13.417975772508196	-3.140335348070492	-9.591115037672132
O	13.104258672508196	-3.7474845180704914	-5.861969907672131
O	3.998202902508196	16.18122265192951	-6.044642487672132
O	3.5750665325081963	12.588428051929508	-4.980670627672132
O	2.762969632508197	9.021354931929508	-5.875478407672132
O	5.148816832508197	6.244601511929509	-6.962875597672131
O	3.8304407625081964	3.5598559219295085	-4.561829087672131
O	5.381026832508197	0.048158031929508516	-4.425179687672132
O	2.8604207825081964	-0.9649140780704917	-2.0754277676721316
O	4.1567654225081965	1.3995954289295085	0.7168926013278686
O	7.172893222508197	0.7906543129295085	2.5989034423278685
O	8.680225302508196	4.348082621929509	3.4199906123278687
O	6.514450812508197	10.467737511929508	3.055679182327869
O	3.6758074125081963	8.116035181929508	15.686709762327869
O	6.614017242508196	9.817246881929508	13.91441416232787
O	5.950048622508197	13.54127725192951	7.242002182327869
O	3.0360834625081967	13.321763251929509	4.799904332327869
O	-2.197658357491803	11.806151751929509	4.801537072327869
O	-0.5314040314918032	13.08214025192951	-0.3737298176721313
O	3.2434882825081965	12.703589151929508	-0.6287160576721313
O	4.373213532508196	9.048073881929508	-1.1846767976721313
O	7.465148662508197	7.739540511929508	-2.9096089576721313
O	7.365652052508196	4.251062891929509	-1.3655626376721315
O	9.719761172508196	1.3025375629295084	-1.3354521376721313
