50

O	8.0016508102417	-0.43509623408317566	0.42094385623931885
O	7.373843193054199	0.21738284826278687	1.439871072769165
O	8.375114440917969	1.6204334497451782	1.578365683555603
O	9.49239730834961	1.257684350013733	0.33922120928764343
O	9.052170753479004	0.0955234169960022	-0.11397858709096909
O	6.1731953620910645	-0.13061897456645966	2.241314649581909
O	5.158143997192383	-0.6686180830001831	1.4384229183197021
O	4.6603498458862305	0.11794903129339218	0.39787790179252625
O	5.181342124938965	1.2575316429138184	0.2397289127111435
O	3.623169183731079	-0.2553122043609619	-0.48464399576187134
O	3.30754017829895	0.8480346202850342	-1.5166951417922974
O	2.4627015590667725	0.010225893929600716	-2.626124858856201
O	1.3563299179077148	-0.5968652367591858	-1.7784255743026733
O	0.36762338876724243	0.26215195655822754	-1.1898386478424072
O	4.695478439331055	1.0007445812225342	-2.161635637283325
O	5.323753833770752	-0.04982944577932358	-2.840909719467163
O	5.270782947540283	-0.15796414017677307	-4.219347953796387
O	5.869269847869873	-1.1475597620010376	-4.937326908111572
O	6.582925319671631	-2.1235299110412598	-4.277917861938477
O	6.673093795776367	-2.0732359886169434	-2.90055513381958
O	6.046907424926758	-1.046311378479004	-2.2209737300872803
O	3.255978584289551	-1.1594445705413818	-2.932410478591919
O	0.5586702227592468	1.3024221658706665	-0.2641502916812897
O	1.0820952653884888	1.3183294534683228	1.0538979768753052
O	0.5060316324234009	0.7741541266441345	2.1977550983428955
O	1.0594780445098877	0.9646831750869751	3.4113409519195557
O	2.1998913288116455	1.6818718910217285	3.6454999446868896
O	2.7917213439941406	2.2324726581573486	2.5097768306732178
O	2.226074695587158	2.0364913940429688	1.2853034734725952
O	-0.6055004000663757	-0.7268805503845215	-0.4955126941204071
O	-3.5561234951019287	-0.546133279800415	1.6188713312149048
O	-2.5428380966186523	-1.3919165134429932	0.817011296749115
O	-1.7274448871612549	-0.20167537033557892	0.19301171600818634
O	-1.965015172958374	0.965535044670105	0.2600163519382477
O	-3.5116755962371826	-1.6878607273101807	-0.459526926279068
O	-2.7562732696533203	-2.513441324234009	-1.4324617385864258
O	-3.836711883544922	-0.37104466557502747	-1.112148642539978
O	-4.894574165344238	-0.9455145001411438	1.6851749420166016
O	-5.944984436035156	-0.32595396041870117	2.3722379207611084
O	-7.283768653869629	-0.8641253709793091	2.3210294246673584
O	-5.16595983505249	-1.9957407712936401	1.0431185960769653
O	-8.052427291870117	-0.14150531589984894	1.228408694267273
O	-7.446270942687988	0.7508418560028076	0.3560595214366913
O	-8.76290225982666	1.2565571069717407	-0.5973999500274658
O	-9.97834587097168	0.3292221128940582	0.14742307364940643
O	-9.3356351852417	-0.309455007314682	1.0690640211105347
O	-11.407356262207031	0.3714665472507477	-0.29133352637290955
O	-12.166141510009766	1.1190677881240845	0.7980940341949463
O	-11.988877296447754	-1.0031960010528564	-0.43208637833595276
O	-5.798897743225098	0.8712610006332397	3.176563024520874
