49

O	-4.868797779083252	0.09986663609743118	-0.5670409202575684
O	-4.775252819061279	0.5908794403076172	-1.7280795574188232
O	-6.952678203582764	1.330749273300171	-0.37619802355766296
O	-6.096868991851807	0.4802985191345215	0.16335587203502655
O	-6.419908046722412	-0.03909062221646309	1.3818305730819702
O	-7.6145806312561035	0.3162982761859894	2.0352985858917236
O	-9.667903900146484	1.6130822896957397	1.9877300262451172
O	-10.547780990600586	2.505072832107544	1.3953949213027954
O	-10.114582061767578	2.973660945892334	0.14655201137065887
O	-8.955557823181152	2.592297315597534	-0.4187866747379303
O	-8.48370361328125	1.2029014825820923	1.4441287517547607
O	-8.112349510192871	1.7014321088790894	0.20978376269340515
O	-3.8765203952789307	-0.745201826095581	-0.025095153599977493
O	-2.642213821411133	-1.107287049293518	-0.8708620667457581
O	-1.5026735067367554	-0.794455349445343	0.17570091784000397
O	-1.8997427225112915	-0.2940116822719574	1.224495530128479
O	-2.6135191917419434	0.2854408621788025	-1.746368646621704
O	-1.4803473949432373	0.17828838527202606	-2.6360623836517334
O	-0.41178572177886963	0.8088939189910889	-2.3225972652435303
O	-1.5354673862457275	-0.6015027761459351	-3.8214573860168457
O	2.023505210876465	-0.2664572298526764	-0.40290674567222595
O	1.8922367095947266	-1.5976496934890747	-1.1662646532058716
O	0.9619329571723938	-0.7874698042869568	0.9008380174636841
O	-0.2179630994796753	-1.0532947778701782	-0.0578339658677578
O	1.5664072036743164	-2.2907536029815674	1.0203248262405396
O	0.8288313746452332	-2.9641103744506836	2.091496229171753
O	1.2477655410766602	-2.975970983505249	3.4021685123443604
O	-0.36533865332603455	-3.632629632949829	1.804587483406067
O	0.5486646294593811	-3.606998920440674	4.408224105834961
O	-1.0489833354949951	-4.252206325531006	2.797722816467285
O	-0.6413756608963013	-4.267517566680908	4.091147422790527
O	4.328323841094971	-1.0260918140411377	-0.7643218040466309
O	3.394277572631836	-0.7050235867500305	0.4495774209499359
O	5.766454696655273	-0.6511148810386658	-0.11960400640964508
O	5.532241344451904	0.7720101475715637	0.47449684143066406
O	4.412632465362549	1.229490876197815	0.34497740864753723
O	6.470563888549805	-0.20404212176799774	-1.5391892194747925
O	5.805853366851807	-1.2037962675094604	-2.6170754432678223
O	6.70427942276001	-0.8167320489883423	-3.8868892192840576
O	7.307875633239746	0.5128664374351501	-3.7968945503234863
O	6.274017333984375	1.4359166622161865	-3.1778857707977295
O	5.010582447052002	1.011773943901062	-3.649369478225708
O	4.399536609649658	-0.32274383306503296	-3.011522054672241
O	4.095956325531006	0.31379225850105286	-1.5544792413711548
O	6.487107276916504	1.5065006017684937	1.1093578338623047
O	6.434328556060791	2.8081271648406982	1.7003846168518066
O	7.822086811065674	3.1562752723693848	2.255488395690918
O	6.175157070159912	3.756664991378784	0.5289177298545837
O	5.355276584625244	3.0235724449157715	2.7128028869628906
