49

O	-2.714186559232421	5.53236842605945	9.25192785947451
O	-3.5021803814675403	6.398596961433424	8.93339657613809
O	-2.428190679682297	3.633552167633728	11.018914896259048
O	-2.893603393482998	4.5836734004649395	10.272580739074677
O	-4.3315865267354186	4.433864024736615	10.241188025713996
O	-4.932327355771596	3.2052510747284413	9.97645951557011
O	-4.050016231139496	1.1159770351078837	9.27910347888278
O	-3.4600528627778413	0.04241951556123125	9.890395128104904
O	-3.0710549982096245	0.17918053031906034	11.18489886605968
O	-2.5644988747348574	1.3795269530684204	11.58665830484853
O	-3.9614919054979723	2.262532366833047	9.945354951882887
O	-2.934389402935775	2.427200520634748	10.876715987038494
O	-2.8091944857429363	5.0770983388943005	8.011864541020692
O	-2.3229124373010865	4.279998206712758	7.148655620662542
O	-1.4593854837462539	3.966759055113572	8.234398807165594
O	-1.452679397787802	2.949935090291807	8.640446880605495
O	-3.1193024269786624	3.0990113072890133	6.975333213811402
O	-4.456230486668608	3.628664177113534	6.992147154518754
O	-5.358225550698961	2.7321016225359065	6.900811682230598
O	-4.954491942690633	4.916421943253168	6.755205569519106
O	1.1699798459199822	4.813124162309281	9.167216715987447
O	2.395107841809274	4.653607986875299	9.435510655093628
O	0.07897166195577499	5.448459556544242	8.567983392516252
O	-0.2862261656453038	4.216339832404253	8.273078476263974
O	-0.41584599984804127	6.2634637780868125	7.449088612921083
O	-1.2533823583052754	7.408339028665296	7.173304719076189
O	-1.6831822543949526	8.469583216582972	7.892896248434424
O	-2.188586190247333	7.2864820527585135	6.1937640786182
O	-2.3513364791535674	9.473253141882948	7.344475814965344
O	-3.4669232465746695	7.736149574357021	6.2244287296801115
O	-3.548906170414053	8.922673457465152	6.884151620522894
O	-0.009671369328831503	5.013806330649219	10.281104865468073
O	0.46923422334030507	3.836834260119898	10.175714089515541
O	-0.04934083302372372	6.2892217493003475	9.747085680910745
O	0.9485975609170898	7.03315857408795	9.11875673847915
O	2.0298013023796226	7.206953885029369	8.675784765644982
O	-0.8929186452089253	6.985593982308286	10.522868786050445
O	0.21606585417081425	7.1556288070022775	11.47285049337631
O	0.46021052698560405	8.351969966067442	10.810226703055502
O	1.425544757236426	9.210279372955444	11.482751590847633
O	2.7567951734063043	8.59233600710434	11.376458432497278
O	2.49201798663363	7.16876573674053	11.272588035127555
O	1.3793515875068976	6.408388606273282	11.036611792758466
O	1.045512644261772	5.089556270865805	11.096607952039749
O	1.0312569758772565	8.454551388113138	8.651670895257013
O	1.2286512531205402	9.700719829350945	8.204429229503438
O	2.5631913889808633	10.313144605921803	8.51617106186751
O	0.3616510613736579	10.857552457834956	8.773502119416335
O	0.9561920213172486	9.886308088118557	6.7526911900763
