21

O	122.806	133.739	64.752
O	123.169	132.548	64.039
O	122.196	131.726	63.446
O	120.837	132.057	63.531
O	120.399	133.22	64.213
O	119.011	133.529	64.276
O	118.546	134.67	64.942
O	119.453	135.537	65.567
O	123.748	134.479	65.289
O	121.864	136.476	66.395
O	120.846	135.287	65.542
O	121.381	134.111	64.855
O	124.691	134.093	66.135
O	124.623	132.874	66.908
O	125.675	132.527	67.81
O	126.8	133.392	67.949
O	126.872	134.592	67.19
O	125.824	134.94	66.291
O	122.793	137.072	65.461
O	122.548	135.772	67.465
O	120.901	137.633	67.054
