25

O	18.109	11.827	-38.09
O	16.79	11.56	-38.378
O	18.768	11.136	-37.098
O	15.656	5.016	-33.76
O	17.32	6.492	-32.898
O	16.117	10.59	-37.67
O	18.105	10.166	-36.381
O	16.093	4.038	-32.893
O	17.754	5.508	-32.027
O	14.768	8.789	-35.881
O	16.268	6.247	-33.764
O	14.554	7.725	-35.033
O	16.793	9.91	-36.689
O	17.138	4.278	-32.03
O	15.854	7.295	-34.653
O	12.663	6.258	-35.66
O	11.216	7.982	-35.504
O	13.247	7.186	-34.625
O	16.804	8.043	-35.229
O	16.122	8.93	-35.962
O	11.51	6.806	-36.132
O	12.259	8.246	-34.656
O	13.124	5.174	-35.974
O	10.216	8.657	-35.692
O	17.546	3.301	-31.179
