30

O	28.928	50.907	14.301
O	29.75	50.145	15.29
O	36.204	48.649	10.627
O	27.481	51.071	14.876
O	35.64	50.007	12.767
O	36.137	51.129	14.69
O	26.851	49.688	15.227
O	38.45	49.074	10.448
O	27.802	48.847	16.129
O	44.269	50.79	12.494
O	29.233	48.767	15.527
O	42.931	52.311	13.759
O	33.041	49.647	13.503
O	41.853	50.73	12.336
O	35.322	50.551	13.962
O	39.587	49.697	10.945
O	39.475	50.529	12.167
O	38.159	50.715	12.799
O	37.007	50.0	12.252
O	37.223	49.194	11.04
O	41.733	52.832	14.15
O	42.986	51.287	12.854
O	40.63	51.229	12.718
O	40.523	52.308	13.656
O	33.92	50.396	14.342
O	33.397	51.1	15.489
O	32.019	50.981	15.833
O	31.134	50.232	14.982
O	31.666	49.527	13.844
O	44.243	49.808	11.395
