74

O	0.12746345473636367	-3.383871242585455	1.3755736948781818
O	2.852235085736364	-2.7870956925854546	3.7106590698781816
O	1.9233450357363637	-2.3782783225854542	1.0554726458781818
O	1.0973481157363636	-3.8798766525854544	4.081946549878182
O	-0.9248433402636363	1.5989509974145455	2.572484109878182
O	0.8353694057363636	0.6555315094145455	6.133422309878182
O	-1.5484881092636362	0.46016878901454544	2.931051239878182
O	-0.2364678562636363	-0.1349076435854546	6.183554689878182
O	0.40042803573636365	1.2644117484145454	2.299048069878182
O	1.2312285457363636	0.7643860214145455	4.782728479878182
O	-1.3402291912636364	-0.6859144825854546	2.0649422498781815
O	-0.03996896026363628	-1.3904745425854546	5.553270519878182
O	1.9579313257363637	-0.37741863058545455	2.8598080398781818
O	0.5967933657363638	-2.250037472585454	1.3935165338781819
O	1.5537808157363637	-2.7658731925854543	4.1520235998781825
O	0.8201554057363636	-0.029098711585454518	2.062253839878182
O	1.5004768257363639	-0.43010492958545454	4.179268909878182
O	-0.0335698322636363	-1.1397864925854546	2.088076139878182
O	0.7123860257363637	-1.5639265925854546	4.3902256598781815
O	-11.199824834263637	2.1481784874145458	1.751540779878182
O	-12.081707034263637	-8.903293582585453	5.591555039878182
O	-9.820757284263637	-11.585187362585454	0.6332652229781819
O	-5.760448364263636	-3.003152382585455	-11.625338560121818
O	-7.984452434263636	-0.18937826658545454	-8.052236920121818
O	-4.868333064263636	2.0026605574145453	-8.033157780121819
O	-9.297897894263636	4.6467923674145455	-6.221378970121818
O	-6.3257320642636365	4.424899357414545	-3.929738800121818
O	-4.660037624263636	7.512363617414545	-5.356620270121818
O	-7.935554424263636	8.943219397414547	-1.460854140121818
O	-4.1470357142636365	9.249771877414545	-0.8367060201218182
O	-2.6913676742636365	12.438076537414545	0.7271120684781818
O	10.278935065736363	0.6930488604145455	-6.151240520121818
O	9.104839235736364	-2.939256412585454	-6.440596620121818
O	6.381491345736364	-5.293818602585454	-5.370692620121818
O	8.751020165736364	-7.181758022585455	-3.071960060121818
O	10.482607865736362	7.116426337414545	-3.8269556701218184
O	7.4275570257363634	5.255340547414545	-2.5734413001218184
O	8.279760915736363	2.6653805174145457	0.05594016387818179
O	7.479037385736365	0.5566372774145455	3.125541819878182
O	8.971427615736363	-1.6284475925854547	5.866881849878181
O	9.694548165736363	-5.3060222325854545	5.146899979878182
O	6.840999265736364	-7.7061562725854555	4.372720349878182
O	8.696614115736363	-11.050038362585454	3.778388579878182
O	7.999403335736363	9.752590737414547	8.766328299878182
O	10.598974065736362	9.428839687414547	0.5071503158781818
O	6.846038525736364	8.743784277414546	0.6721066548781818
O	6.289246115736364	6.186277467414545	3.420183119878182
O	3.365109705736364	4.285511577414545	2.064752199878182
O	1.3228886057363638	4.153829297414545	5.355606729878182
O	1.5261922557363639	7.732868067414545	6.059936689878182
O	0.1333719807363637	8.672401197414546	2.645725649878182
O	-2.4419706342636363	5.8302702274145455	2.335875769878182
O	-4.032148704263636	5.559908897414545	5.767118439878182
O	-7.396334054263636	4.322976267414545	4.376112119878181
O	-5.778325314263636	1.2612318024145455	2.819256099878182
O	-4.9562724942636365	-0.000815919585454572	6.323700309878181
O	-7.674551274263636	-2.7081743625854546	6.169371379878182
O	-6.546188774263636	-4.038105922585455	2.795757729878182
O	-2.9737577342636365	-4.229308632585455	3.9037292798781817
O	-4.112227334263636	-6.263890222585455	6.973028649878182
O	-5.965731444263636	-8.696198592585453	4.786960959878182
O	-3.0559560642636363	-8.982517932585454	2.415934079878182
O	-0.8126920763636363	-10.133351862585453	5.260499489878182
O	-3.481221614263636	-12.386247962585454	6.7563242398781815
O	-3.6859886242636364	-14.347003462585453	3.558760429878182
O	-2.9037957142636364	-6.427511532585455	-4.163946950121818
O	0.8723416657363636	-6.823728642585455	-4.026036050121818
O	0.9109752257363637	-4.814069512585455	-7.366167850121818
O	-0.7128937636636363	-1.7939366825854546	-5.769040100121818
O	2.132048795736364	-0.2562765425854545	-3.6962369201218186
O	4.329405385736364	0.44889003261454546	-6.834926990121819
O	1.2880422157363636	1.7633388874145455	-8.727803640121817
O	0.20333127673636364	4.278256787414546	-5.971085810121818
O	3.0969967057363634	6.613875927414545	-5.277901930121818
