19

O	1.1783263683319092	2.3407444953918457	-1.3646798133850098
O	-1.002097487449646	2.740722179412842	0.6655564904212952
O	2.784274101257324	1.7229503393173218	-2.81838059425354
O	-2.63051438331604	2.698735475540161	2.227891206741333
O	1.567090392112732	-2.7756738662719727	-1.0622256994247437
O	-1.7701987028121948	-2.1635003089904785	2.048152446746826
O	2.4777183532714844	-2.359611749649048	-1.9874805212020874
O	-2.6274075508117676	-1.3881686925888062	2.765146255493164
O	0.776174783706665	-1.8682156801223755	-0.4257930517196655
O	-0.9228667616844177	-1.547160029411316	1.156665563583374
O	2.5895438194274902	-1.0189348459243774	-2.271023988723755
O	-2.611765146255493	-0.031851232051849365	2.570925712585449
O	0.03299853205680847	0.3888011872768402	-0.012902617454528809
O	1.923814058303833	1.3438838720321655	-1.945959448814392
O	-1.8120677471160889	2.046731948852539	1.5316519737243652
O	0.8951094746589661	-0.5003048777580261	-0.7197234630584717
O	-0.8895426392555237	-0.17453330755233765	0.9433897733688354
O	1.7952443361282349	-0.05754338577389717	-1.6384652853012085
O	-1.7538334131240845	0.6029287576675415	1.6668657064437866
