19

O	27.42853923972194	-6.981022737326184	28.476719163726006
O	28.996730270151506	-3.9143821774760985	27.306403917528772
O	27.884610350911853	-5.256277878843183	29.551952519781583
O	28.49557677352357	-5.590756356037858	26.144393726915958
O	32.260757009989135	-7.809417603293374	30.302067068792443
O	33.38207638342474	-5.503421643984686	27.125009372723916
O	31.60527694071518	-8.371459080262387	29.268247278046985
O	32.87426564442039	-6.556125472548256	26.48463032168388
O	31.70315650053162	-6.546500269430763	30.494809064266637
O	32.651800854321564	-5.329300191575686	28.32054563620923
O	30.15587280460325	-8.309174987773169	29.31694806829868
O	31.473464692817466	-6.467958411307086	26.27895715316954
O	30.54520785884436	-4.9250682128786325	29.284029040925375
O	28.312433477769453	-6.510823201771606	29.186518361762836
O	29.394759236563807	-5.124982655963505	26.79919985848308
O	30.477223203787688	-6.174929016387788	29.98057736700902
O	31.308944502914727	-5.16479969862354	28.138493093702245
O	29.674641280023977	-7.017414570599708	29.200051091583184
O	30.58817536907915	-5.912845661434896	27.204651289040008
