14

O	-6.646830777706086	-29.40579952141437	9.281297785338593
O	-5.165327892040614	-31.65960279269821	9.606389987318277
O	-2.955904827430561	-29.766801756207492	4.775123160124432
O	-2.1055918717008275	-30.724168104238675	9.064258493307301
O	-1.2828044030879875	-29.396669032094568	7.680393233734382
O	-4.853233791791097	-29.148071311440795	6.070399927385987
O	-4.0700579539831505	-31.344772314646956	7.180845317844408
O	-6.08106887274853	-28.81882237113556	8.197146653240615
O	-5.9683288037745275	-31.374210949446876	8.523062687668348
O	-1.954082226825034	-30.397403901416315	7.687912483829981
O	-3.487806571733686	-29.49654591812787	6.093133456995365
O	-5.489870317692961	-29.51373171674563	7.214114641189337
O	-5.340863851438523	-30.837396153541	7.442865781319406
O	-3.126951066786779	-30.41927113551438	6.881411178807241
