58

O	-1.8413467220681818	-2.5135724135681823	2.3620993324999997
O	-4.502692347068182	-2.140551523568182	2.7599181425
O	-4.451538137068182	-2.658566123568182	-2.8556343075
O	-5.936762967068182	-4.438897033568182	0.9733072444999998
O	-5.4918929070681815	-5.212186143568182	-0.9130730575000002
O	-2.7501252570681816	-2.4199658535681823	-1.2098242975
O	-4.922388227068182	-1.9831740035681822	0.11774307349999985
O	-1.7623900010681819	-2.778306053568182	1.0340577965
O	-3.686805297068182	-1.3475235435681823	1.9819130325
O	-5.741617377068182	-4.148108253568182	-0.4056120565000001
O	-3.9514416270681822	-3.067814743568182	-1.5612124775000003
O	-2.624114347068182	-2.278618713568182	0.13599856649999986
O	-3.6869249070681818	-1.620671493568182	0.6499603564999998
O	-4.901672847068181	-3.0439669635681823	-0.7248440175
O	5.498943002931818	-7.427363003568182	-5.0248554775
O	6.353301352931818	-10.123821853568183	7.9957172225
O	11.206805582931818	-2.515487053568182	1.8499095624999997
O	11.044575782931817	-1.7761965935681823	-3.5460509075
O	7.470201232931818	-0.5955273565681822	-3.1346937375
O	8.342571012931817	2.7297465164318178	-4.647911197500001
O	10.109997082931818	0.9501421664318178	-7.5516723475
O	6.869323872931818	-0.8860787045681822	-8.3709151675
O	4.549840912931819	2.0718880064318177	-7.7714975175
O	0.4684687529318181	4.406262916431818	10.3149679025
O	-3.0207156470681817	4.2094990564318175	11.8147310425
O	-1.0631673270681818	9.363402946431817	0.6850951854999998
O	-4.264387987068182	7.703183606431818	1.9205821624999997
O	-6.284997677068182	4.451909466431818	2.2719932425
O	-9.569134487068183	3.158351336431818	3.6161119624999998
O	-10.197116907068182	1.881464426431818	7.1408138725
O	-8.076071047068183	-0.9924578365681822	8.3787797425
O	-8.920946117068182	7.106701786431818	-6.877892567500001
O	-3.696233107068182	15.769671066431817	-4.449092467500001
O	-4.738529407068182	12.473191166431818	-2.8990877375
O	-2.842543857068182	9.310266846431817	-3.8178835175
O	-5.058419177068182	6.339140196431818	-2.9684772275
O	-2.600416717068182	3.631459696431818	-1.8601309975000002
O	-4.339098537068182	0.7152452804318178	-3.6449854975
O	-4.473384337068182	2.758145756431818	-6.871876157500001
O	-0.7318471140681818	3.556612756431818	-6.866108207500001
O	0.5773716429318181	0.3394070264318178	-5.3817616075000005
O	-1.4521759950681818	-2.398292113568182	-7.120501557500001
O	1.3448889229318184	-4.896847223568182	-6.6821286075
O	0.8349030729318183	-4.603003613568182	-2.9158107775
O	-2.192694184068182	-6.690708643568182	-3.2463982375000002
O	-0.6530970180681818	-9.964219513568182	-2.1450461075000002
O	0.8600412329318183	-8.349110013568183	0.8998664294999998
O	-2.4044438170681817	-6.652138613568182	1.7016150524999998
O	-4.253303167068182	-9.986054553568183	1.6313504625
O	-1.808383166068182	-11.534348533568181	4.0745394325
O	-1.9676519740681817	-8.527051193568182	6.406675312499999
O	-5.758359497068182	-8.805362853568182	6.5692666325
O	6.5849225229318185	-4.066065373568183	9.977735342499999
O	4.2730825029318185	-3.657160663568182	6.9738884325
O	2.0798826729318183	-1.2348640335681824	9.0172364425
O	5.301530862931818	1.3987420164318176	5.1127213524999995
O	2.279034812931818	3.691383176431818	4.2160031125
O	4.317431432931818	7.666342126431818	-4.7748222775
