73

O	1.300948783350877	-0.8472618875964912	1.6861526283140351
O	0.7378568633508769	-1.7358232975964913	2.585133148314035
O	-0.4939203166491231	-2.2340513075964914	2.3443292383140353
O	-2.7565335766491232	-1.5218795075964913	1.3918108183140352
O	-3.582358096649123	-0.4605661195964912	1.1662007783140351
O	-3.3408218566491232	-2.464078257596491	2.171989398314035
O	2.060695873350877	0.19737011640350877	2.137638438314035
O	2.047315523350877	0.5141080929335088	3.458559038314035
O	1.062660543350877	-1.5800313175964913	3.8999734683140352
O	1.635238303350877	-0.38778905459649127	4.439704188314035
O	1.780958273350877	1.8445899224035087	3.953271088314035
O	0.7026473333508769	-0.9322820075964913	0.4238806423140351
O	-0.6303225444491232	-1.3976174075964911	0.29590857231403506
O	-1.313124685649123	-1.5093187675964912	1.4717136083140352
O	-4.328378556649123	-0.026434944596491206	2.2554718883140352
O	-3.9411834166491233	-1.2629891575964913	3.385406078314035
O	-8.205313226649123	6.765783212403509	9.167265018314035
O	-8.697064776649123	5.781080002403509	5.488476338314035
O	-5.589430596649123	7.401716902403509	3.940840928314035
O	-9.193727246649123	8.491813002403509	-6.6119251516859645
O	-5.7880080366491224	7.0628033924035085	-5.732326451685965
O	-4.173487146649123	6.487582242403509	-2.354158711685965
O	-0.8801550936491231	8.33544963240351	-1.914377511685965
O	1.5481966833508767	5.864081452403509	-0.3767893866859649
O	5.238677293350877	6.625963932403509	0.2258325083140351
O	5.528172743350877	3.1135626924035087	1.694262578314035
O	5.189572943350877	1.0845780344035088	-1.567923501685965
O	6.152439953350877	1.2905018774035089	-5.236795731685965
O	3.323700003350877	-0.03445600059649123	-7.408858281685965
O	-2.258430466649123	-0.3668280285964912	-8.985486611685966
O	-9.151919436649123	-1.6482415375964914	-9.084805831685966
O	0.5220829233508768	-11.35987492759649	-6.739945161685965
O	0.9751718033508769	-9.125774157596492	-3.663078331685965
O	0.4261599133508769	-10.702036027596492	-0.2561687986859649
O	0.6226165333508769	-8.63506430759649	2.905517708314035
O	0.4277235833508768	-9.71888752759649	6.5905638383140355
O	-3.387432966649123	-9.54054502759649	6.614932028314035
O	-4.585447006649123	-10.157937327596493	3.0082669283140353
O	-3.601288476649123	-9.649247927596491	-0.649417699685965
O	-4.088416986649124	-7.93162758759649	-3.9976103516859647
O	-3.676820976649123	-9.54467922759649	-7.442157341685965
O	-8.739022466649123	-9.858128627596493	-7.059931471685965
O	-8.139719416649124	-8.52868342759649	-3.561143321685965
O	-8.679222636649124	-9.37763073759649	0.09478832941403509
O	-8.485377746649123	-6.859951417596491	2.9031048583140353
O	-7.069841816649124	-4.363626357596491	0.4151790693140351
O	-9.762474986649124	-1.8858672975964912	-0.4059409376859649
O	-10.437422696649124	5.575974672403508	-3.303286151685965
O	-10.032261986649123	2.7630227424035088	-5.844708871685965
O	-6.271468946649122	2.511301292403509	-6.320121261685965
O	-2.832417166649123	3.068736942403509	-4.877144201685965
O	0.0786513813508769	5.302909982403508	-6.016112591685965
O	3.266374203350877	3.718166402403509	-4.575033231685965
O	5.8177217333508775	6.568190642403509	-4.366257301685965
O	8.839252113350877	4.565428402403509	-3.075809341685965
O	10.337428803350877	-3.037967227596491	-3.3514567016859647
O	8.136652613350876	-2.994904557596491	-6.467981811685965
O	6.2545399833508775	-6.1974648875964915	-7.194468291685965
O	7.152055073350876	-8.52897178759649	-8.697384131685965
O	10.694231403350877	-7.091484867596491	-9.086010551685964
O	10.900297303350877	4.725160142403508	7.252126918314035
O	8.698576353350877	7.665158842403509	6.273337448314035
O	5.2888736133508765	6.504620332403508	5.222226608314035
O	2.146856543350877	8.340822672403508	4.184570828314035
O	0.19549154135087687	5.075939802403509	3.967424798314035
O	0.3521184333508769	4.369185062403509	7.759989678314035
O	-1.597569516649123	6.090702012403509	10.423141878314036
O	0.5037430533508769	5.255250942403509	13.508208878314035
O	9.206077733350876	-4.229584967596491	10.547326178314036
O	10.103981103350877	2.312956602403509	12.912249778314035
O	7.283843693350876	3.6790106124035087	10.749145278314035
O	6.883820093350877	7.427270142403509	10.684534178314035
O	3.228640673350877	7.544741152403509	9.691302448314035
