16

O	68.788	50.16	8.648
O	69.203	49.052	9.391
O	69.915	49.24	10.576
O	70.938	50.734	12.217
O	70.58	51.723	13.085
O	71.966	49.985	12.656
O	68.085	50.001	7.515
O	67.76	48.774	7.055
O	68.889	47.769	8.942
O	68.158	47.628	7.756
O	67.076	48.657	5.917
O	69.088	51.445	9.098
O	69.807	51.633	10.281
O	70.239	50.532	11.022
O	71.276	51.856	14.225
O	72.419	50.635	14.168
