18

O	15.380806850362	0.4091711916058074	16.77225363768604
O	18.852091233496115	5.263869853649537	13.57329051619313
O	16.762337589842073	6.071149873619149	13.25572778042534
O	16.78072391835072	3.9339427055001392	14.138417346932822
O	15.122111268559115	2.8103205410313508	15.564550268646153
O	15.62641599464586	3.8908668024431385	14.871060048992522
O	15.973458904864259	1.8352722974045834	15.977729290724396
O	17.431331058577143	2.6961455991626644	14.316077281604791
O	17.052399035376734	1.6963414958208087	15.162516450934351
O	17.4355392585622	5.067156504874749	13.555782268070212
O	21.18778011842462	7.8331871407248075	14.16244104196934
O	20.280209488193837	6.974940207714284	12.348616579551813
O	19.23316298494682	8.511523191216348	13.498575180363654
O	19.35112550806797	6.311284083376752	14.481816814375463
O	13.91214351441744	0.43931418168531966	16.82423038451701
O	19.98570231101708	7.33187918192064	13.643972526993911
O	15.892858815529495	-1.057404372484518	16.051741271832555
O	15.659851540634971	0.2921993274467649	18.21773593194145
