18

O	4.549286842346191	-0.2770291864871979	-0.32525700330734253
O	-2.327989339828491	0.042698126286268234	0.04547931253910065
O	-1.6228004693984985	1.5038357973098755	1.6558027267456055
O	0.12314340472221375	0.44301366806030273	0.48067378997802734
O	2.433629035949707	0.8752367496490479	0.95145183801651
O	1.0851324796676636	1.0900788307189941	1.1920231580734253
O	2.8457415103912354	-0.011123479343950748	-0.02750709280371666
O	0.50493985414505	-0.4395221471786499	-0.49399450421333313
O	1.8554044961929321	-0.6586908102035522	-0.7393397688865662
O	-1.3033372163772583	0.6890743374824524	0.7559562921524048
O	-4.523575782775879	-1.8063522577285767	-0.3572639226913452
O	-4.501174449920654	-0.061533309519290924	-1.801266074180603
O	-5.952173233032227	-0.14297477900981903	-0.03452739864587784
O	-3.7104032039642334	0.3291650116443634	0.3652598261833191
O	5.272205829620361	1.0226612091064453	-0.04057169705629349
O	-4.671199798583984	-0.44793474674224854	-0.48957622051239014
O	5.169519901275635	-1.5572681427001953	0.6396498084068298
O	4.773650169372559	-0.5933347940444946	-1.776992917060852
