87

O	-1.5803761812985073	0.8216886214294028	-2.5958466325477616
O	-2.047532299298507	0.4565920074294028	-4.936154272547762
O	-2.4324510532985073	0.5724265220294028	-3.631370822547762
O	-3.7735818932985072	0.6090385442224028	-3.4029028725477617
O	-4.588859923298507	0.6686891972294028	-4.335376592547762
O	-4.215146293298507	0.5886244619294028	-2.1584792525477616
O	-3.3713145132985076	0.6759517585294028	-1.1371263445477617
O	-3.835015073298507	0.4981829774294028	0.0064627134522382
O	-1.2189185494985073	0.6551665353294028	-0.17978032954776177
O	-2.035013966298507	0.6283003522294028	-1.3568206825477618
O	-0.21804575329850717	1.7703874424294028	-0.1350443515477618
O	-0.8620670292985073	2.982837492429403	-0.29227012394776175
O	0.4191719467014927	1.7213532324294027	1.2166275674522382
O	1.4365638967014929	2.5968451924294027	1.4590381174522382
O	0.9667410967014927	0.3470290644294028	1.5649508674522383
O	1.4216548267014926	0.40885689942940284	2.8636928074522383
O	-0.05392748329850727	-0.7199894175705972	1.2923659574522384
O	-0.7283386892985073	-0.5916983075705973	0.10556981845223823
O	0.6509397367014926	-2.0467917475705972	1.2894216874522382
O	1.7313226867014928	-2.0102534675705974	0.4177776194522382
O	-8.432786243298507	-8.050379807570598	4.975871187452237
O	-8.682290913298507	-10.681076687570597	7.700910527452238
O	-10.320575053298507	-5.770447857570597	1.6208492974522384
O	-10.102933473298508	-1.9790266375705974	1.4172438974522383
O	-7.117259813298507	-0.9621040175705973	3.4832890274522383
O	-3.366859323298507	-1.303233267570597	3.3833702074522383
O	-2.883883743298507	-3.703854717570597	0.4573837484522382
O	-5.588256833298508	-6.028889197570598	1.7609116674522385
O	-4.253810563298507	-6.020655557570597	5.307202917452238
O	-0.6848827282985073	-6.6748729775705975	4.093241577452238
O	-1.9992577702985073	-9.860259787570598	2.5036619174522383
O	-3.450526893298507	-10.908833487570597	5.899602747452238
O	-0.25891007329850724	-10.129940287570598	7.873220877452238
O	-14.462892903298508	-0.28078137457059715	-2.7430933025477615
O	-11.876554003298507	1.916514852429403	-4.5731094425477625
O	-8.561028343298506	2.217844362429403	-2.8722190325477617
O	-5.7419922232985074	3.897687352429403	-4.814017812547762
O	-8.063201533298507	4.584217732429403	-7.775015982547762
O	-8.603901003298507	2.564322412429403	-10.909870402547762
O	-12.055151403298508	1.947710522429403	-12.293600702547762
O	1.2576877267014928	-10.922341087570597	-7.635886262547762
O	-0.24840155329850733	-8.513492797570597	-5.066273392547762
O	-0.2928656632985074	-5.411805077570596	-7.324964032547762
O	-1.4635999802985074	-5.737908397570598	-10.95474580254776
O	-4.885798053298507	-7.105482807570597	-9.933492442547761
O	5.334915806701493	-8.568659997570597	-8.962274512547761
O	4.807173776701492	-6.1918104875705975	-6.007381942547762
O	3.894822646701493	-2.5540692775705973	-6.756554922547762
O	2.0359252667014927	-0.5520162175705972	-4.146702732547762
O	1.6465560867014928	2.9592341824294026	-5.611663972547762
O	2.9550431467014926	5.562686122429403	-8.052047712547761
O	-0.27925771329850724	7.574916102429404	-8.229053662547761
O	-4.917796083298508	7.382514892429402	-11.386850902547762
O	-4.340553003298507	4.151674372429403	-9.423091942547762
O	9.634408996701492	-6.459736547570596	-9.139123822547761
O	9.567942296701492	-4.9075126775705975	-5.667347662547762
O	8.439662656701492	-1.7568560175705974	-3.962018622547762
O	7.241592736701492	-1.7608765975705971	-0.38786509484776177
O	9.635635796701493	0.6777236971294028	1.2615672674522382
O	13.120898696701493	1.8106242124294027	0.3814339394522382
O	9.225029596701493	3.936583232429403	-2.815614982547762
O	11.507811796701493	1.3467225074294027	-4.472538152547762
O	11.185336396701492	6.292351262429403	-6.7881563325477625
O	9.926826096701493	-2.914850787570597	3.132428777452238
O	6.490525526701492	-3.754949867570597	4.5192225274522375
O	5.7848767167014925	-5.132726607570596	8.018817807452239
O	2.8462807967014925	-5.969346067570598	10.341257497452238
O	-6.718396243298508	5.199025492429403	7.252118497452238
O	-8.818608813298507	5.477055722429403	4.091290297452238
O	-2.884878413298507	12.337467412429403	-0.8071497095477618
O	-3.1935356632985075	11.228199712429403	2.825664597452238
O	-11.645018603298508	6.212208352429403	7.600401217452238
O	-0.6038246772985073	11.103808612429402	12.233473897452239
O	1.2008864267014927	10.087265942429402	9.020037587452238
O	0.9927558167014927	12.281660512429402	3.2908594774522384
O	2.7985286067014927	9.592670682429402	-2.4271507325477617
O	2.465457376701493	6.981377262429403	0.4208130744522382
O	4.3392483967014925	3.916463562429403	-0.8828655925477618
O	4.936989196701493	2.521497372429403	2.580047997452238
O	2.145170156701493	2.798821982429403	5.093733367452238
O	1.4808660967014926	0.062446645429402814	7.661493437452238
O	-0.7545788092985073	1.8402963724294028	10.167167497452239
O	2.3961645967014924	3.810288992429403	11.023915397452239
O	4.0816947267014925	0.5998559639594028	12.193927097452239
O	7.228078066701492	5.761854992429402	2.6339352574522383
O	8.232674886701492	3.6666044624294027	5.649829107452238
O	8.716601196701493	-3.7334008875705975	10.951546397452239
