20

O	35.672448161501976	23.36756846343842	28.383297362644978
O	37.76666633481807	23.640532677499813	29.553045628886867
O	36.42701663071632	23.859957069233364	29.407335162688074
O	35.87303729680108	24.770358313856132	30.253766758110597
O	36.57069650952603	25.45393932870347	31.017790530080923
O	34.562636873649886	24.93417551739048	30.25457604698992
O	33.80235915718545	24.330280218821688	29.348966774420546
O	32.5665879684844	24.40363647796935	29.49696782467249
O	33.42204893757739	22.769900639419244	27.625501802926234
O	34.34550541704289	23.41422487915431	28.511070500616988
O	33.75024583449676	22.905433290427354	26.169004967743614
O	33.868325940177925	24.242103763603247	25.839023747104445
O	32.60563696442722	22.309623084818902	25.41379078553587
O	32.72232138480055	22.239707450533366	24.05664968129308
O	32.262185364195496	20.90135455051626	25.87068108713446
O	31.134337340521995	20.514796378810594	25.180730780937246
O	32.1532814965188	20.836303442690074	27.36684405461633
O	33.138382572479784	21.49937248556513	28.05218300269238
O	32.19240581297931	19.39028496237188	27.7727390310444
O	33.30704961833395	18.771155029896196	27.22267261711528
