40

O	8.941349195524118	26.572605198494582	7.672634264116984
O	4.010280524319224	22.887963800745823	8.223201409854617
O	7.756045009192814	26.427952702581354	7.406323436236306
O	6.798726505154956	25.313298608476842	7.3080286214429195
O	6.901784309439899	24.341601804001208	6.203360565680162
O	5.238031531314942	25.285343344578042	4.715091760768986
O	4.049290638661912	23.01910949172913	4.937816637974287
O	3.3174863695721255	23.98985543112593	5.600193405669018
O	3.8575661169741107	25.15248214098538	5.184042236161249
O	3.354899590315471	23.87194794135828	7.066134298042036
O	2.158739252868757	23.999420219352942	7.273867012948472
O	1.75737986159438	22.737737152117624	7.655993944988918
O	0.3008278900379393	22.728261365763387	7.982242568974717
O	-0.17398285433870164	21.52123095366937	8.344475476313596
O	-1.40573195854937	21.477721307834763	8.92536462531373
O	-1.8851222656362836	22.658549882734864	9.487409717609362
O	-1.6086858195813765	23.77027109543285	8.707111711453129
O	-0.5865565256068122	23.741799085143782	7.797178663159909
O	6.078343706090597	24.251437303832557	5.007044032464092
O	5.385678204323274	23.18487205985568	4.413246460531623
O	2.488771799503861	22.483263905546842	8.81600927015256
O	7.275248860756694	27.34173049328591	8.470271491994149
O	6.941247193459736	28.63335229035249	8.06551556799708
O	7.185447955106423	28.654393489465257	6.584533162455202
O	6.588981213515904	27.75047863065829	5.980929743500013
O	7.496533638240795	29.631212850787747	8.96241964605305
O	8.801112090831325	29.012037962225314	9.507018268106192
O	8.741424647475174	29.516153350125407	10.936043221287628
O	8.747910436217513	30.79025330541559	10.949796335581604
O	7.604951932044294	28.996920766019805	11.657721818462644
O	8.40615434119438	28.193172577805115	5.917133199941029
O	9.103518963329801	29.277166034105754	5.344594902900367
O	8.294543188090751	30.461549602535865	5.003653771362773
O	7.559497182548586	30.890749275212258	5.97225123298112
O	9.909662729435865	29.854038491646467	6.561083409583798
O	9.563561671592911	31.2274165959212	6.891896810745022
O	9.483363715981072	32.02675979450369	8.037758051351503
O	10.390360566325203	32.25318011533258	8.851901045839137
O	8.276654980634238	32.68524405524575	8.356472721008265
O	9.229245415807252	31.518160410254364	4.677765232116151
