10

O	1.6763733625411987	-0.36990779638290405	0.1492205709218979
O	2.495495557785034	0.7156729102134705	-0.06381362676620483
O	2.1846954822540283	-1.4776898622512817	0.41929805278778076
O	0.2334580272436142	-0.25206685066223145	0.0660606250166893
O	-0.3439321219921112	0.9573649168014526	-0.22968554496765137
O	-1.7055037021636963	1.0354924201965332	-0.3006669580936432
O	-2.5184357166290283	-0.05581235513091087	-0.08606203645467758
O	-1.915014624595642	-1.2518888711929321	0.20768539607524872
O	-0.5543175935745239	-1.3494746685028076	0.28302818536758423
O	0.44718137383461	2.0483102798461914	-0.4450646638870239
