22

O	28.808908816633835	15.775146773091745	-1.543316699481956
O	27.590511674162446	16.155557254166972	-2.1533124985299095
O	27.33078307691937	17.482539727825063	-2.579229231715857
O	26.316091060957337	18.19356808783619	-3.7617384187196112
O	28.265853443371288	18.226982441801116	-1.9527589566289267
O	28.91262520879404	17.844584978013764	-0.6536057386935119
O	29.491862557475947	16.54275383717051	-0.6525019825987652
O	30.851215370068452	16.634128579075153	-0.191852007847078
O	31.41877445101042	17.592564153899588	0.5411470052397674
O	30.611010119253166	18.5576939466863	1.2509573104267064
O	32.74738252841873	17.594759372878105	0.44080787345309713
O	32.983917030261836	16.48154805076688	-0.2652580416272974
O	31.854586092274538	15.836187649340662	-0.5271041182833256
O	31.878139063391405	14.918486237754967	-1.7059863597955685
O	30.68256711257365	14.544634950072396	-2.3971654680335925
O	29.573596826850906	15.09426308139657	-2.606775161977171
O	28.670218845611792	14.716208465271782	-3.6965529956115573
O	28.85773739624759	15.393483274182664	-4.867951665424177
O	27.89471377172429	15.863448010740523	-5.712746453505681
O	26.65211906535446	15.314039066018747	-5.555655714580243
O	26.30798177850082	14.77837427165025	-4.348833342682016
O	27.2954513461481	14.553187360244742	-3.4353929739882956
