67

O	-3.5912622890386667	2.9124678328666667	-1.8499035685333332
O	-4.081948699038667	4.138116728866667	-1.341661267533333
O	-3.304330439038667	4.989439998866667	-0.5168552146333332
O	-3.301062969038667	6.668506548866667	-0.17889954053333318
O	-2.286318445038667	4.211246578866667	-0.09367306553333316
O	-2.366761125038667	2.718041098866667	0.03363361246666685
O	-2.800376269038667	2.055178656866667	-1.1507956735333331
O	-1.8654194700386668	1.0111134588666668	-1.4735517085333332
O	-0.9969286830386668	0.39459754886666687	-0.6712789991333332
O	-1.1107823090386666	0.5026655388666668	0.7650872714666668
O	-0.014233969038666805	-0.20328547113333295	-1.3436770785333332
O	-0.41008357903866677	-0.06362123113333329	-2.615492348533333
O	-1.5867733570386666	0.5457613588666668	-2.682543138533333
O	-1.9003491510386668	1.2332171688666669	-3.971561638533333
O	-2.8491697990386666	2.301323909566667	-4.047541918533334
O	-3.2418019090386667	3.193393562866667	-3.256407188533333
O	-3.8915059790386666	4.434414318866667	-3.685807818533333
O	-3.0456918390386667	5.479703558866667	-3.926656448533333
O	-3.2399580890386668	6.790440678866667	-3.600790808533333
O	-4.531363539038667	7.144581738866667	-3.322536668533333
O	-5.405655539038667	6.190446858866666	-2.8900697785333334
O	-5.049404959038666	4.880189718866667	-3.018484538533333
O	-3.088268299038667	4.231570128866667	13.377862471466667
O	-3.407359209038667	11.308545048866666	8.731804861466667
O	-1.5451313972986667	8.904599408866666	6.419639341466667
O	-2.7673246590386666	5.648676888866667	8.117174691466666
O	-5.828275349038667	4.9887927688666664	5.916517611466666
O	-4.375703149038667	2.975429249866667	3.1597862314666667
O	-2.5368857340386666	0.6850508988666668	5.629433651466667
O	-5.477899759038667	0.007583458866666781	7.9660562014666665
O	-6.614526329038667	-3.2100207311333335	6.133491021466667
O	-5.301195949038666	-5.651924971133334	3.5657610714666665
O	-4.746260229038667	-4.259409341133333	0.06564620946666688
O	-7.971388049038667	-4.8375827711333335	-1.8769367685333331
O	-6.446383369038667	-5.407302961133333	-5.264593818533333
O	-9.898196009038667	-5.890523311133333	-6.795612928533333
O	-11.439325119038667	-2.593035451133333	-5.733261728533333
O	-8.166289199038665	-0.7310277311333331	-6.350033838533333
O	-7.752915619038666	-2.375546331133333	-9.823218318533332
O	-4.242007279038667	-3.6150934511333332	-9.074705858533335
O	-4.397712569038667	-7.083111871133332	-10.581563828533334
O	-0.6190047480386668	-7.516999491133332	-10.372230888533334
O	-0.35219452903866677	-6.568748141133333	-6.667114608533333
O	-0.37864382903866667	-10.109584031133334	-5.290513918533333
O	1.2255897009613332	-9.096383731133333	2.3551473914666667
O	0.9381191509613331	-7.1435925711333335	5.555260241466667
O	-1.0861637450386668	-4.216172811133333	6.8069173914666665
O	-1.8128023040386667	-2.4329256111333333	10.106140871466668
O	7.117214250961333	-6.101002301133334	5.770499561466667
O	4.223741920961333	-3.600693001133333	5.3107125814666665
O	6.564389970961334	-0.733936791133333	4.474678601466667
O	8.837387520961332	-2.8431608611333328	2.243384231466667
O	5.874075840961333	-4.170867561133333	0.2587421664666668
O	4.8254739209613335	-0.5968088211333331	-0.41170390153333314
O	8.230938170961334	0.3200199588666668	-1.6987317985333332
O	5.247599000961333	-2.4223294811333336	-5.507283328533333
O	5.236569480961333	1.367909158866667	-6.030235348533333
O	7.636887490961333	4.004535958866667	-7.435590628533333
O	9.766783320961334	6.595835878866667	-5.627887758533333
O	7.9452848309613335	9.792343058866667	-4.917195068533333
O	4.517216270961334	8.234977388866668	-5.422696668533333
O	1.9990667409613332	9.568968008866666	-2.890015438533333
O	1.5761665609613331	6.160608628866667	-1.2530542725333331
O	5.377391770961333	5.891856868866666	-0.8734190005333331
O	5.528535190961334	9.360517308866667	0.7617757514666668
O	2.841663860961333	8.170984168866667	3.169413111466667
O	4.741761460961333	4.988979888866667	4.001754451466667
