79

O	-5.568815086190476	0.7551918183492067	0.20483669477619032
O	-6.596856666190476	1.6380132783492067	0.6302966317761904
O	-7.316856566190475	2.590784255349207	-0.08392342222380966
O	-6.789375416190476	3.9553440753492066	-0.14376387222380968
O	-5.423129456190477	3.6030542253492066	0.5113636757761904
O	-4.956831786190476	2.823897605349207	-0.7121539482238097
O	-4.675667216190476	1.3713976003492068	-0.7476591572238096
O	-1.3230767101904761	4.180803835349207	-1.4156590052238098
O	-1.5582512631904764	3.5402623853492066	-0.19445309072380967
O	-2.821611905190476	3.0441762353492066	-0.14546373622380968
O	-3.8067480961904763	3.7566526353492065	-0.8275631382238096
O	-3.438799656190476	3.8676720653492067	-2.1951198152238094
O	-2.1101504441904764	3.7355717253492067	-2.50048373522381
O	-1.0627627461904763	3.801587605349207	1.1036582647761903
O	-1.0240922461904762	2.6012507453492066	1.90609100477619
O	-1.9770566311904763	1.5357916913492067	1.3457864647761903
O	9.975282053809524	-3.8498420746507938	-12.28973823522381
O	8.830643253809523	0.35083834234920663	-1.2084687322238097
O	6.438618903809523	6.395901675349207	-0.09686022622380966
O	5.481378323809524	10.018914515349206	-0.33735424812380965
O	1.7820243338095239	10.206757945349207	0.10108247577619034
O	3.2658043638095235	12.336967635349207	-4.805451395223809
O	5.501033123809524	9.248544205349205	-4.760831365223809
O	4.651249503809524	5.610217175349207	-5.517507995223809
O	4.841462053809524	2.0043520633492067	-4.3224947652238095
O	3.103798143809524	1.3908324703492068	-1.0900584842238097
O	2.0179735938095242	-2.2269554246507934	-1.6350326352238098
O	2.876071483809524	-3.267431964650793	-5.1942139952238096
O	0.3250725938095238	-2.6345956746507935	-7.91836937522381
O	1.0384592438095237	-1.7245828046507934	-11.56432083522381
O	1.730739753809524	-5.312199174650793	-12.73335733522381
O	4.504569683809525	-5.629654424650793	-10.16528775522381
O	5.9858795138095235	-2.124386044650793	-10.04426199522381
O	7.0706629238095235	4.142861725349206	-11.73651743522381
O	-4.670000696190476	5.241533005349207	-9.67739123522381
O	-7.340037596190475	2.6933594753492067	-8.55976775522381
O	-8.619445596190475	2.903863985349207	-5.0856468852238095
O	-11.833065166190476	1.6279489643492067	-3.2688479852238097
O	-10.116826766190476	-0.9649522246507933	-0.9152959202238096
O	-8.252646136190476	-2.6462557046507933	-3.7832972552238098
O	-9.162239046190477	-3.871962044650793	-7.269519705223809
O	-5.744538116190476	-3.0885304146507933	-8.70875748522381
O	-4.116927036190476	0.051404205349206755	-10.07506185522381
O	-1.1516936361904762	1.7432379883492066	-8.40297660522381
O	1.3656280038095239	3.990466685349207	-10.16146792522381
O	2.852706653809524	7.206659635349206	-8.82920755522381
O	4.892544953809523	10.184681445349206	-9.88315767522381
O	3.6874107638095235	13.675122935349208	-9.04406262522381
O	-10.582557566190477	0.6304502173492066	10.21569096477619
O	-9.017197856190476	4.138838155349207	10.24345476477619
O	-8.822428216190476	6.217680285349207	7.0644813447761905
O	-4.322075786190476	8.045489795349207	9.17816938477619
O	-4.032786106190477	4.7010626253492065	7.589881164776191
O	-4.612454176190476	1.8673400543492067	9.95126086477619
O	-6.312100296190476	-0.8132077646507934	7.887324374776191
O	-5.771034016190477	-4.093509494650793	9.67351308477619
O	-7.078080836190477	-7.397015594650793	8.38220520477619
O	-6.460732056190476	-14.607739064650794	8.52935419477619
O	4.353002803809524	-8.445015834650793	0.053408427776190315
O	6.073477583809524	-9.496193564650792	3.27171426477619
O	7.996458853809523	-7.605547454650794	5.970783584776191
O	5.882716813809523	-7.655149474650794	9.12248562477619
O	5.024437343809524	4.947523955349206	10.96327486477619
O	5.396383903809523	6.883357875349207	7.702705914776191
O	5.314051383809524	4.017785825349207	5.185666534776191
O	7.244297263809523	0.7802951743492066	4.432361674776191
O	6.408890603809523	-1.8777247646507935	7.031273854776191
O	5.080389813809523	-4.499071214650793	4.63581481477619
O	1.924274213809524	-6.621376184650793	4.758467804776191
O	0.12034621380952393	-8.074683704650795	1.7537498447761903
O	-0.4562206061904761	-11.845598864650793	1.9831620347761905
O	-5.5584524561904765	-13.521041164650793	4.276404264776191
O	-3.3198479661904763	-10.691741764650793	5.472684904776191
O	-3.6587698161904765	-6.946678214650793	4.937821254776191
O	-1.4281765001904763	-4.531063474650793	6.816378034776191
O	-2.045267602190476	-0.8705647346507934	6.41158987477619
O	0.5899131938095237	1.6355840663492067	7.277479424776191
O	0.1892170938095239	5.390751725349206	7.353185584776191
O	0.6687313438095237	6.653644475349207	10.85775486477619
