16

O	-3.4295461177825928	-0.58102947473526	-0.5285946130752563
O	-3.1076455116271973	0.7933176159858704	-0.840427041053772
O	-3.503826856613159	1.6990034580230713	0.2282193899154663
O	-2.62115740776062	1.465837836265564	1.4339977502822876
O	-1.1993155479431152	1.1256227493286133	1.0258710384368896
O	-1.2246382236480713	-0.21644945442676544	0.44321417808532715
O	-2.3070852756500244	-1.1624563932418823	0.29184651374816895
O	2.400567054748535	-1.6205039024353027	-1.0560847520828247
O	2.3761019706726074	-0.3602197766304016	-0.49729546904563904
O	1.179133415222168	0.11027122288942337	0.0007805659552104771
O	0.02792944200336933	-0.6465794444084167	-0.05066822096705437
O	0.12675637006759644	-1.893355131149292	-0.6216528415679932
O	1.2823559045791626	-2.357874870300293	-1.107033610343933
O	3.5457403659820557	0.4205155074596405	-0.439852774143219
O	3.456435441970825	1.7067773342132568	0.14612115919589996
O	2.998195171356201	1.5171228647232056	1.5715587139129639
