17

O	-2.6446690559387207	-1.183083176612854	0.498108446598053
O	-3.5407326221466064	-0.9623060822486877	-0.7189083695411682
O	-3.73075270652771	0.47255656123161316	-0.8846235871315002
O	-4.246557712554932	0.9675503373146057	0.37951770424842834
O	-3.1429219245910645	1.729628086090088	1.0725417137145996
O	-1.7762471437454224	1.2749097347259521	0.6874912977218628
O	-1.6389707326889038	-0.14228984713554382	0.532576858997345
O	2.3325767517089844	-1.4334807395935059	0.11582717299461365
O	1.307929277420044	-2.3146989345550537	0.09887077659368515
O	0.029034655541181564	-1.907848834991455	0.2321481555700302
O	-0.2761249542236328	-0.5648686289787292	0.39165669679641724
O	0.773264467716217	0.3267783224582672	0.4079080820083618
O	2.081973075866699	-0.08840383589267731	0.27164095640182495
O	4.11946439743042	-2.0628530979156494	-0.07660938799381256
O	3.1495707035064697	0.8131390810012817	0.28760117292404175
O	2.940722942352295	2.1916232109069824	0.44384241104125977
O	4.262441158294678	2.883647918701172	0.4200838804244995
