12

O	-3.091549873352051	0.5272057056427002	0.35612961649894714
O	-4.022158145904541	-0.4109557271003723	0.8387437462806702
O	-2.420048952102661	0.23516978323459625	-0.9394357800483704
O	-1.531990885734558	-0.9666096568107605	-0.760284960269928
O	-0.5005671381950378	-0.7246004343032837	0.2986081540584564
O	0.3662187457084656	0.44272667169570923	-0.10535647720098495
O	1.0299314260482788	0.08418241888284683	-1.4285171031951904
O	1.8390145301818848	-1.1849156618118286	-1.122581958770752
O	2.816570520401001	-0.7702434659004211	-0.04092865064740181
O	3.6732230186462402	0.3406457304954529	-0.6101497411727905
O	4.67739725112915	0.8342533707618713	0.4089760184288025
O	-2.8360402584075928	1.5931413173675537	1.018176794052124
