14

O	23.087	36.334	41.412
O	24.48	36.845	41.285
O	22.981	36.165	42.912
O	22.082	37.37	40.979
O	22.777	35.061	40.652
O	25.057	36.99	42.511
O	25.18	37.161	40.158
O	24.167	36.593	43.503
O	21.926	35.873	43.465
O	20.944	36.609	40.335
O	21.599	35.398	39.791
O	26.331	37.48	42.668
O	26.466	37.651	40.287
O	27.037	37.796	41.532
