16

O	-0.949	3.81	19.639
O	-1.015	3.68	18.399
O	-0.841	2.834	20.425
O	-0.988	5.216	20.19
O	-2.275	5.471	20.981
O	-3.311	6.264	20.194
O	-2.646	7.262	19.25
O	-3.444	8.559	19.186
O	-2.539	9.766	18.952
O	-3.35	10.9	18.356
O	-2.862	12.273	18.823
O	-3.478	13.338	17.935
O	-2.94	14.745	18.222
O	-3.554	15.634	17.177
O	-3.74	17.045	17.661
O	-4.192	17.9	16.509
