16

O	-5.1971588134765625	0.5043757557868958	-0.40513676404953003
O	-6.317156791687012	0.37046653032302856	-1.2285873889923096
O	-4.996781349182129	1.605595350265503	0.11482547223567963
O	-4.351724147796631	-0.6983635425567627	-0.23456308245658875
O	-3.1780824661254883	-0.4746571481227875	0.6571977138519287
O	-2.250845432281494	0.6110798716545105	0.13941124081611633
O	-1.110329508781433	0.7376818060874939	1.1280794143676758
O	-0.42415833473205566	-0.612952709197998	1.1777780055999756
O	0.06841273605823517	-0.9030662775039673	-0.2272731512784958
O	1.0469911098480225	0.20144009590148926	-0.6416295766830444
O	2.211698293685913	0.22496595978736877	0.3157798647880554
O	2.948798894882202	-1.097856879234314	0.316262423992157
O	4.108529090881348	-1.0675067901611328	1.272709846496582
O	5.1097636222839355	0.001275286078453064	0.9217132925987244
O	5.665013790130615	-0.23683705925941467	-0.4641859829425812
O	6.66702938079834	0.8343598246574402	-0.8131769895553589
