85

O	2.1759561402775365	-9.23424614152174	1.456870105746376
O	3.1464809102775364	-9.75423780152174	2.0186424157463763
O	1.2814869602775363	-10.241761811521739	1.2102065957463761
O	1.7055454502775365	-7.9290368315217385	1.3396990657463763
O	2.175664630277536	-6.585953301521739	1.3178183657463762
O	1.4667102702775363	-5.480994721521739	2.027201665746376
O	1.6588664302775364	-4.048825441521739	1.6135085857463762
O	0.4835292602775362	-3.139909431521739	1.694455115746376
O	0.8378425002775362	-1.8565754815217392	2.385864275746376
O	1.5604245602775362	-1.0407545715217392	1.3499791857463763
O	0.6351088202775362	-0.36573660652173917	0.38808541574637634
O	-0.7000952662224638	-1.0190975215217393	0.5322928457463761
O	-1.5862977127224638	-0.13643869752173915	1.330496495746376
O	-1.985508169722464	1.1676701684782609	0.7116899857463762
O	-3.372096569722464	1.1657223284782607	0.1314058127463762
O	-3.9144489797224638	2.562296008478261	0.2531448617463763
O	-11.947180469722463	3.221726738478261	-5.763219794253623
O	-10.527382259722463	2.110894088478261	-9.092788974253624
O	-7.311488809722464	2.141541798478261	-11.155260934253624
O	-4.041837399722464	3.468950178478261	-9.839601884253625
O	-0.3605319997224638	3.491257788478261	-10.873944234253624
O	2.6027025402775363	3.626740988478261	-8.422554224253624
O	4.346072350277536	6.580271188478261	-10.090530264253625
O	7.960469280277536	5.324538948478261	-4.008732124253624
O	11.328065330277536	4.507845858478261	2.114233725746376
O	13.209195430277536	5.106284958478261	5.357184955746376
O	13.016899230277536	-1.5934645815217392	1.7492457757463762
O	12.020571730277537	-8.40816336152174	-4.582946634253624
O	12.648479630277537	-5.774667671521739	-1.8624255042536237
O	10.105978730277537	-5.911415401521739	0.8422600557463763
O	8.191806970277536	-2.632392421521739	0.06438995374637624
O	8.587463520277536	-2.698497911521739	-3.665915794253624
O	4.862166450277536	-3.088595741521739	-4.429753474253624
O	2.925532820277536	-1.8222476015217393	-7.371938494253623
O	-0.6593365178724638	-0.8316753345217393	-6.806293014253623
O	-3.1854956197224635	-1.9517449615217393	-9.414147214253624
O	-6.605871519722464	-1.1490347215217391	-7.957127624253624
O	-8.250315039722464	0.11626994647826083	-4.818989624253623
O	-11.500859369722464	-1.5193599515217393	-3.766086834253624
O	-13.124029269722463	0.03007043047826084	-0.6616172697536238
O	-9.993094069722464	-0.9964880015217392	1.719585115746376
O	-9.089561219722464	-3.970101421521739	-0.37919368425362376
O	-5.924927019722464	-3.520631131521739	-2.3713059642536236
O	-4.8806218597224635	-5.367891661521739	-5.478570504253623
O	-1.1506685717224638	-5.128868431521739	-6.132761494253623
O	1.7258347302775365	-6.800097001521739	-7.992318344253624
O	4.861194090277536	-7.944328721521739	-6.238608644253623
O	8.013503860277536	-9.69938040152174	-7.440718804253623
O	8.579060640277536	-12.970237611521739	-5.665291244253623
O	-1.7285394497224638	-10.04286261152174	-4.677799204253623
O	-5.017075839722463	-9.02783218152174	-2.8979613642536237
O	-4.846620939722464	-7.344892201521739	0.5867193357463761
O	-7.201519719722464	-5.942385621521739	3.160662605746376
O	-6.667082099722464	-2.650360941521739	4.990749125746377
O	-9.206029639722464	-2.484704751521739	7.813193735746377
O	-10.918484169722463	8.03278484847826	8.205809595746375
O	-7.382887899722464	8.346567168478261	6.713636855746376
O	-5.767433109722464	5.527845138478261	8.696602215746376
O	-6.115617139722463	1.8040433684782609	8.020470705746376
O	-4.646676249722464	-1.2447261415217392	9.530763765746375
O	-3.261132859722464	-4.314487111521739	7.792148425746377
O	-2.846528969722464	-7.327555191521739	10.122572765746376
O	0.49907741027753627	-9.00297764152174	10.811619165746375
O	3.3413878502775365	-6.536113641521739	13.727873065746376
O	0.7174105002775363	-3.732559741521739	13.645971365746375
O	1.175131230277536	-2.034273081521739	10.262078765746375
O	-0.5108617147224638	1.2179944984782607	9.549077065746376
O	-1.6009271817224637	2.669344858478261	6.240360565746377
O	-2.1705212997224637	6.432433618478261	6.119245695746376
O	-3.698957509722464	8.44460979847826	3.308205695746376
O	-1.7980968897224638	11.77617108847826	3.209919935746376
O	-0.2572616577224638	9.88793212847826	-1.5272429432536239
O	-0.02662115572246382	7.158600418478261	1.1165743457463764
O	2.5165638502775365	5.879125808478261	3.5526842857463765
O	2.7802135802775365	2.565907698478261	5.331909245746377
O	4.615218750277537	2.333085168478261	8.619295635746376
O	5.308304580277536	-0.2503430835217392	11.310742565746375
O	8.278841340277536	3.564919728478261	6.6376947257463765
O	7.427442250277537	3.636228588478261	2.920432105746376
O	5.307597050277536	6.081434978478261	0.9215790057463763
O	4.068247560277537	6.161477298478261	-2.672248414253624
O	2.664649780277536	8.65478384847826	-5.067445604253623
O	-0.2656900377224638	6.930048258478261	-6.824107514253623
O	4.8782058902775365	13.92462718847826	-2.809979674253624
O	5.924477590277537	-5.041000421521739	-12.006064634253624
