18

O	-4.833343505859375	-0.05781305581331253	1.4862233400344849
O	-6.095242977142334	-0.612421989440918	1.7520909309387207
O	-4.703768730163574	1.1834028959274292	1.2858890295028687
O	-3.686251401901245	-1.0025115013122559	1.4559292793273926
O	-3.3906450271606445	-1.2980258464813232	0.0019239319954067469
O	-3.044987916946411	0.00016860081814229488	-0.6865106821060181
O	-1.8288732767105103	0.5767850875854492	0.0027665661182254553
O	-0.7105469107627869	-0.4344256520271301	-0.13182246685028076
O	0.5558185577392578	0.09378454834222794	0.5458506345748901
O	0.9532743096351624	1.377671718597412	-0.12044847756624222
O	1.224912405014038	1.1777024269104004	-1.549710988998413
O	2.2907817363739014	0.30492156744003296	-2.0036489963531494
O	2.382659912109375	-1.1000893115997314	-1.7098677158355713
O	2.541264057159424	-1.6146596670150757	-0.34947124123573303
O	3.750375270843506	-1.2402695417404175	0.4131239950656891
O	3.9846107959747314	0.20281638205051422	0.6587197184562683
O	5.242885112762451	0.4744795858860016	1.4455530643463135
O	5.367076873779297	1.968483805656433	1.626326084136963
