20

O	-1.654822913893003	3.3778377797750494	17.98870121696773
O	-0.5872093151918576	2.7251652175765084	17.515184564215986
O	-2.2315081191902753	2.988812087900147	18.97642889731209
O	-1.7483069467974697	4.749383548620628	17.623887980190702
O	-2.323094971656163	5.604018638409698	18.678392395894008
O	-2.9445011035237925	6.901556207528346	18.271569087636596
O	-2.952548716463979	8.025243362100541	19.20887706689359
O	-2.5161538400548076	9.379913728264404	18.91907857584843
O	-2.9566337369509488	9.85261143394522	17.627235043920194
O	-4.313915327648972	10.350934494850009	17.605759169773393
O	-4.712648286109274	10.785409691435287	18.92545316812902
O	-4.497954407289035	9.946681225825731	20.099674257819874
O	-3.6113027359397147	10.668368231071955	21.014092650734927
O	-3.529729964834166	12.06519426740699	20.73274195176907
O	-2.9286443151220127	12.55584241679331	19.49713809072442
O	-3.977618351617055	13.429231637261232	18.917648535935765
O	-3.625678716732006	13.646572606921584	17.539980187318502
O	-3.148367340815486	15.101109675196932	17.417734882143247
O	-3.517312169462408	15.997040293165968	18.524705415345696
O	-3.071001386037354	15.373915564386639	19.79937210322659
