29

O	3.1746710280950223	32.39298289994455	8.571537635366033
O	3.6877572626773567	31.38970753242487	6.6036937871404335
O	4.624311193278011	29.371491039080315	6.169040300866772
O	2.461279044498388	33.35237043709172	6.3648561582024765
O	3.8446128014237484	31.37622712829975	9.188439783861208
O	3.008964298540068	32.365429607582634	7.270258524738804
O	4.233733357181572	30.306992901387716	7.147162447470708
O	4.472228744634691	30.34895342399799	8.482590641137369
O	5.906425644253825	29.121645104663884	5.8909427787762585
O	6.547944105809064	28.028388685637807	6.570141955584571
O	7.744414108942074	27.4282393778975	6.134066739950306
O	8.502824083946592	28.253532749578156	5.359501801771662
O	7.519636338110924	28.69723020806881	4.477615701957909
O	6.354177002408368	29.460894753351344	4.6819143313701845
O	5.9439641857186984	29.349768310151944	3.3331000654381304
O	2.7139190192728813	33.24233611324168	4.93840262215459
O	3.9105694361477625	32.56955927830791	4.646303009887089
O	3.9920776301908028	31.651848587578034	3.601604686510292
O	3.432871604565193	31.927272021607948	2.405519743507626
O	2.331494346911413	32.72692427684689	2.632541455356276
O	1.88330367359735	33.21508476287077	3.861289151110184
O	3.8348967773179634	31.414625327968995	1.0892719038540122
O	5.3990791202335595	28.227743005939516	2.720390078765062
O	5.918241975204891	27.777349637181533	1.4972860278698459
O	6.978334186204984	28.400792730254025	0.9022249047726181
O	7.222287514566146	29.71578979297903	1.217698563634829
O	6.668698446152902	30.141998858986444	2.423288073273736
O	4.336073192506894	30.357495261733597	0.6775128369811867
O	3.1464778038375103	31.713274379782384	-0.11581544849876568
