80

O	-2.5162740285576928	-2.1186313024230774	0.13905024301923108
O	-2.1477031005576928	-0.23476947242307733	1.4129839070192312
O	-1.8583256375576926	1.6001770045769228	0.7723313139192312
O	-1.9339420745576925	-2.232950782423077	2.524316843019231
O	-2.6223640355576925	-1.4241015224230773	-1.0286307169807687
O	-2.2738348075576926	-1.5435463224230774	1.3153532860192312
O	-2.0393983305576926	0.41642307357692276	0.20396837901923115
O	-2.6216625285576924	-0.03505762342307717	-0.937362846980769
O	-0.6828716095576925	2.048534577576923	1.509961823019231
O	-0.1453509995576927	2.9985870375769226	0.47697600001923113
O	0.5049888504423075	4.170355777576923	1.0163530080192311
O	-0.45046799955769257	4.994608877576923	1.5022062700192311
O	-1.0546552875576927	4.270420427576923	2.567433043019231
O	-1.2018922775576926	2.9180326875769227	2.419273013019231
O	0.14877768044230733	2.5232965475769227	4.141867273019231
O	-1.6832699560576927	-1.5496454924230771	3.7560627630192314
O	-0.5368480195576926	-0.8976054424230773	4.108839903019231
O	-0.3346743695576926	-0.49671596242307725	5.437994593019231
O	-1.2815072745576925	-0.7383861924230772	6.437108653019231
O	-1.7587892055576926	-2.029391312423077	6.185171833019231
O	-2.0506806825576924	-2.333015052423077	4.856924563019231
O	-0.8012124525576926	-0.3388437824230772	7.773747113019231
O	-0.5320324095576927	0.8958349476769227	7.88901200301923
O	-1.0064266995576925	-1.0372004424230772	8.935084903019233
O	-1.1167512445576926	2.039677497576923	3.626819183019231
O	0.8960383704423072	2.1180812675769225	3.142733103019231
O	0.3184034004423075	2.5197055975769227	5.454685413019231
O	0.5380631804423073	3.8693176375769225	4.016117103019231
O	-10.635135319557692	-0.24948265242307732	7.6569191430192305
O	-8.747262739557693	2.907608587576923	6.642454603019231
O	-5.320756489557692	1.7915828735769228	5.566496993019231
O	-3.9133152595576925	5.385374457576923	5.735402973019231
O	-2.8735793495576925	8.731231627576923	4.015721443019231
O	-2.9712210495576925	11.412494227576921	2.9573912530192312
O	-7.287951349557693	8.190858267576923	1.901735313019231
O	-6.874461359557693	4.527347617576923	1.086182991019231
O	-9.387210279557692	1.9654520175769228	2.293421823019231
O	-9.432469599557692	-1.7899950924230772	2.475094163019231
O	-12.592453329557692	-2.690703392423077	0.551334397019231
O	-10.634110869557693	-7.971488942423076	-1.371458736980769
O	-8.702366869557693	-4.893392042423077	-2.501428746980769
O	-7.764496279557693	-1.3065319224230774	-1.694438706980769
O	-9.690451129557692	1.7564406615769228	-2.7511470369807687
O	-7.959120739557693	5.116283287576923	-2.988375056980769
O	-0.3577152195576927	7.815695277576923	-12.958977816980768
O	6.729281630442307	-6.528413332423077	-7.76790288698077
O	4.508233970442308	-3.7122065424230772	-9.07462571698077
O	1.1566471204423074	-2.9676601224230774	-7.36836500698077
O	-8.730529869557692	4.116037397576923	-7.753355126980769
O	-9.224181359557692	0.3677745305769228	-7.396731516980769
O	-5.986656539557693	-1.1616913824230772	-6.3357408369807695
O	-4.418118279557692	-4.482608502423077	-5.55504001698077
O	-4.379831789557692	-4.768538112423077	-1.7620779969807687
O	-0.8965460725576926	-5.152867022423077	-0.19024527698076887
O	-1.5063613295576925	-7.127688852423077	3.050918403019231
O	1.7124430204423076	-6.196447202423077	5.009444333019231
O	1.6974361404423075	-2.346131702423077	4.505099293019231
O	4.706256800442307	-0.22627491242307718	3.6892900530192314
O	8.427114270442306	-0.7812606124230772	3.695818523019231
O	8.698283970442308	2.461167877576923	5.718531223019231
O	6.5448290304423065	1.1369205905769229	8.56069241301923
O	8.770015170442306	-2.0405194824230772	8.531484903019232
O	11.955087570442307	0.049715024576922784	8.55312929301923
O	10.565007070442308	2.119604157576923	11.44368598301923
O	9.822296670442308	-1.1616846324230774	13.261462683019232
O	10.123615170442307	3.5559062975769224	1.6270164650192311
O	6.711206640442308	5.318522887576923	1.9469984430192313
O	5.995893140442307	4.295166087576923	-1.7260343669807687
O	6.920336300442306	0.5874683885769227	-1.438278716980769
O	4.374812300442307	-2.001267032423077	-0.19210763698076894
O	4.713705730442308	-5.556777512423077	0.9546782180192311
O	2.7703613604423074	-8.472124602423078	-0.444444596980769
O	1.4014018504423074	-11.404083072423077	1.552526437019231
O	8.385067170442307	-5.735611122423077	-2.1734342369807687
O	5.8715658004423075	-4.005080352423077	-4.441993706980769
O	6.316429860442307	-0.5885152624230772	-6.109734216980769
O	3.0799763404423075	1.1409946295769227	-5.13592506698077
O	2.741665850442307	4.836088207576923	-5.849976676980769
O	3.312972110442307	6.082799177576923	-9.439706016980768
O	2.2743604104423074	9.650511257576921	-8.561386036980767
