28

O	3.847	31.808	9.156
O	4.502	30.952	7.058
O	5.704	28.843	6.871
O	3.3	33.048	7.223
O	4.405	30.76	9.8
O	3.897	31.89	7.813
O	5.073	29.873	7.658
O	5.029	29.755	9.054
O	5.935	29.005	5.46
O	4.894	29.362	4.608
O	5.118	29.519	3.246
O	6.387	29.306	2.728
O	7.425	28.934	3.574
O	7.209	28.792	4.945
O	9.331	29.199	6.08
O	2.939	33.233	5.844
O	1.86	34.066	5.569
O	1.477	34.325	4.263
O	2.184	33.728	3.217
O	3.262	32.882	3.468
O	3.647	32.657	4.794
O	1.723	34.008	1.833
O	2.55	34.033	0.868
O	0.482	34.234	1.672
O	8.248	28.395	5.779
O	8.95	30.461	6.333
O	10.149	29.193	5.033
O	9.979	28.674	7.129
