65

O	0.6666017970984912	29.05345512996659	22.55358844436534
O	0.7728390788037114	27.88331236727985	21.75003170089892
O	1.154371154147717	27.853762024560588	20.340013823468453
O	1.671632235433151	26.741317516358677	19.98949201561269
O	-0.6395705408992951	27.381572257612067	21.81417106919713
O	-1.478360820419967	28.48666278866584	22.458887368452274
O	-0.5839735981606218	29.73977272853895	22.347503094166637
O	0.22123570163379203	28.135427634649016	19.357200604418235
O	0.7485931725511445	28.809563552214904	18.27349467547494
O	2.0130854106199014	28.405889420601593	17.90715146541605
O	2.0326246154530097	28.10270686270954	16.69875337492761
O	0.34971668292785907	30.14961909807136	18.65628404314412
O	-0.9668311622144579	30.293426728120366	19.031246526311858
O	-1.7245513457941968	29.210931518777144	19.366189886623644
O	-1.8319778681089378	31.31041109810072	18.94096541811112
O	-2.9737458879294474	29.58549843960333	19.158269667988836
O	-3.0582354436658035	30.87776036783111	18.895903575408123
O	3.2376338778660196	28.116792048310224	18.43871420885709
O	4.248264253593138	28.70854959692826	17.46312098630351
O	4.043953629414239	30.065034047309616	17.933780691404674
O	4.521896808571583	30.357962254835805	18.99769695964146
O	5.397079113851555	27.90168070499978	17.854956184936075
O	5.52040573214822	28.336821602075876	19.27565835151725
O	4.4285403284864	28.16804426955688	20.239213381965158
O	6.3959400531413	27.319396856125934	19.867418400854923
O	2.7559434190048813	30.57160821020562	18.084904520704633
O	2.51499292360617	32.011122660165064	18.34736529609035
O	3.355579552678245	32.73361102890053	17.457316293595472
O	3.6480798230533047	33.838696675847466	17.045808827027763
O	3.0518887170385085	31.76135923502539	19.757277539387196
O	2.4957839773157993	30.701423898759018	20.447719689140403
O	4.486939514456193	32.00456106264875	16.856760475199025
O	5.850116582337223	32.05098604781271	16.592124075522797
O	6.5929046925776555	30.91124380969249	17.004675790940095
O	7.565886677932596	30.42867142442237	17.95749907154908
O	7.646634609190039	30.58507779373869	19.310781402446075
O	8.324819406784503	29.244064606496895	17.736858069769248
O	8.31344643187586	29.828581103933804	20.26911179857073
O	9.156587473572454	28.588598688011707	18.604437177567362
O	9.434586584089658	29.229334457644118	19.767879288833104
O	5.603745858256914	32.25385370657089	15.079672232905004
O	4.260326926497532	32.21891164875707	14.615975162212079
O	3.073870028911171	31.8156143449181	15.148494209401456
O	2.2909787769893684	30.624059244803203	15.48644210485181
O	0.8787242101767543	30.923421265066246	16.042846907270025
O	-0.30223983730880466	29.846557987592263	15.616335588587978
O	-1.7420582561938849	29.364974062543062	16.335237134429914
O	1.8687061403064482	32.391222768542086	14.551523295141788
O	0.7033409851547621	32.35758253166083	14.890501148752055
O	2.1890922533558124	33.70490366123389	14.39568519166862
O	1.5119633260843806	34.909316785909645	14.77319150514771
O	0.580391950827905	35.632341078099785	13.89537675708077
O	0.07272650673515901	34.50726382535956	13.505865989647665
O	0.7331460775989074	34.23166504458855	15.910018668391807
O	-0.6314088547994956	36.33381094571911	14.215505443363863
O	-1.984906185594431	36.163496000153636	14.556636129281426
O	-2.5053665015452102	37.496947369101704	14.644300448813242
O	-1.911696422121432	38.504551007826336	13.817423158992739
O	-2.274505876663534	34.84658333056672	15.000603876963353
O	-2.0388733330019555	33.57858490230237	15.505722174946253
O	-1.8207685352370682	32.432238341299744	14.90477564332095
O	-2.9415656038364135	33.113573773364294	16.502674977341297
O	-2.972467274507987	31.763970325887513	14.894532281980462
O	-3.4888032005086975	31.964630784113275	16.10684367538842
O	-3.1909791132391367	38.15526374149918	15.485212806215873
