47

O	0.08755471557378769	-1.4205102920532227	3.792722702026367
O	-2.9475975036621094	1.966587781906128	6.755627155303955
O	-1.434511423110962	-0.7174513936042786	4.237678527832031
O	-6.306230068206787	0.3674396574497223	4.436838150024414
O	-5.147581577301025	0.8069630861282349	5.1195478439331055
O	-3.901829242706299	0.2851605713367462	4.8131842613220215
O	0.9566182494163513	-1.581642508506775	5.0227508544921875
O	-0.11907293647527695	-2.8414306640625	3.289632797241211
O	-2.55395245552063	-1.1585062742233276	3.5583693981170654
O	-1.5485985279083252	0.2254280298948288	5.20523738861084
O	-3.8146448135375977	-0.6783291697502136	3.8186192512512207
O	-2.8104000091552734	0.7479718923568726	5.509625434875488
O	1.1079756021499634	0.39605599641799927	0.503223180770874
O	0.947650134563446	-0.5329100489616394	2.624479055404663
O	1.6820403337478638	1.3538345098495483	1.1025811433792114
O	-2.380026340484619	3.6599714756011963	-0.145216703414917
O	-3.7181131839752197	3.2083499431610107	-0.5875540375709534
O	-4.901107311248779	3.613642692565918	-0.011442222632467747
O	-6.114957809448242	3.136571168899536	-0.508518397808075
O	-6.120828628540039	2.2607128620147705	-1.576419711112976
O	-4.929141521453857	1.8587367534637451	-2.1492881774902344
O	-3.7582943439483643	2.333515167236328	-1.6511151790618896
O	-7.3373026847839355	1.7701643705368042	-2.110151529312134
O	-8.348247528076172	1.372589111328125	-2.5713210105895996
O	0.054848767817020416	-0.4798932373523712	1.3058547973632812
O	-0.7730045914649963	0.8194553852081299	1.908321499824524
O	-1.3006316423416138	1.5812054872512817	0.784368097782135
O	-1.2802488803863525	1.0824613571166992	-0.3613474369049072
O	-1.8383631706237793	2.871736526489258	0.9316616058349609
O	1.3865541219711304	0.1053113266825676	-0.8330798745155334
O	0.7387812733650208	-1.0566651821136475	-1.5332142114639282
O	1.9329767227172852	-2.0344815254211426	-1.8318440914154053
O	1.951188564300537	-2.8836491107940674	-2.6535754203796387
O	0.7281957864761353	-0.3612517714500427	-2.9882943630218506
O	1.9811925888061523	0.394724577665329	-3.089909076690674
O	2.2667367458343506	0.8039963841438293	-1.6911075115203857
O	3.051924467086792	-1.8221849203109741	-0.9953901767730713
O	4.185612201690674	-2.656222343444824	-1.169754981994629
O	5.092899322509766	-2.359640598297119	-2.2604141235351562
O	4.727755069732666	-1.5181528329849243	-3.2604904174804688
O	5.637437343597412	-1.2378255128860474	-4.273316383361816
O	6.872635841369629	-1.8016108274459839	-4.256390571594238
O	7.821355819702148	-1.4874407052993774	-5.3246870040893555
O	9.10534954071045	-2.0903875827789307	-5.2669596672058105
O	7.494958400726318	-0.6857562065124512	-6.279679298400879
O	7.218056678771973	-2.655644178390503	-3.226325035095215
O	6.354388236999512	-2.960998773574829	-2.2072763442993164
