96

O	-1.470694942755102	-7.87141717237551	-0.653453458408163
O	-4.196083350755102	-3.8155136123755105	0.5623297915918368
O	-3.1463310107551017	-7.552737932375511	-0.1468381884081631
O	-2.9178094707551017	-5.418617852375511	3.908530541591837
O	-4.1168959807551015	-5.50514730237551	3.130692091591837
O	-3.920921650755102	-6.2185769623755105	1.9416011915918372
O	-0.6836234327551018	-8.59980540237551	0.34247972159183715
O	-1.7768904457551018	-8.521136492375511	-1.9068428204081629
O	-3.609305990755102	-8.30216855237551	0.9031442215918368
O	-3.6307426907551017	-6.256312572375511	-0.34585904840816295
O	-4.329235320755102	-7.565461212375511	1.8188328015918371
O	-4.236264200755102	-5.569885252375511	0.7386573315918372
O	-1.8335963707551017	-4.111501052375511	-1.367710053408163
O	-0.7559605477551018	-6.29152342237551	-0.760118528408163
O	-1.2724196047551017	-3.6470848123755104	-0.30925561840816296
O	0.12653414924489814	-3.0813549323755103	-4.524264388408163
O	1.0952839392448983	-2.7120914323755105	-3.3600410884081633
O	1.068495199244898	-3.2373633723755106	-2.134118764408163
O	1.5625641892448983	-4.437678422375511	-1.550517713408163
O	1.939381959244898	-5.347690542375511	-2.430873613408163
O	2.799556579244898	-4.61629856237551	-3.305329308408163
O	2.2945463592448982	-3.3564326323755105	-3.699713598408163
O	1.5256358292448982	-6.69626627237551	-2.810931348408163
O	1.0714238192448982	-7.75561690237551	-2.882578048408163
O	-1.7236562877551018	-5.546138512375511	-1.483783268408163
O	-2.0410906537551017	-5.961429332375511	-2.8441858584081627
O	-1.3042200417551018	-5.160758592375511	-3.817228328408163
O	-0.8377891477551018	-5.838896242375511	-4.746015868408163
O	-0.8004802077551019	-3.8990891823755107	-3.8779384484081634
O	-2.947080780755102	-3.4546670523755107	-1.9903018424081629
O	-3.043815600755102	-1.9763089423755105	-1.763878582608163
O	-1.9713930657551018	-1.4307645383755105	-2.568543067408163
O	-2.0110542517551018	-1.9490954993755105	-3.686119478408163
O	-4.364823710755102	-1.5739339693755106	-2.348358248408163
O	-5.141439030755102	-2.8228158023755103	-2.647126071408163
O	-4.080928550755102	-3.8744186923755106	-2.775607378408163
O	-0.8570609147551018	-0.6478477123755105	-2.396029243408163
O	0.12751223924489818	-0.20075576037551057	-3.312304598408163
O	1.4991797392448982	-0.061636252375510514	-2.7187957084081633
O	1.7308274092448983	-0.43636449237551056	-1.519284870408163
O	2.768955169244898	-0.8749980673755106	-0.811208580408163
O	3.763032889244898	-1.5403422273755105	-1.408557176408163
O	5.003694539244898	-1.6918213943755105	-0.707901825408163
O	5.856616109244898	-0.8027969623755105	-0.40327066840816306
O	5.349302359244898	-2.9750300423755105	-0.308304188408163
O	3.7395678592448975	-0.9452409413755105	-2.581474073408163
O	2.6967275992448982	-0.3511738083755105	-3.178804458408163
O	-0.8817604767551017	5.30822849762449	-9.860192378408163
O	-8.110946820755101	6.5727270776244895	-2.449650699408163
O	-7.570467820755102	2.9800461076244895	-3.5832196584081633
O	-6.090759430755102	4.310451277624489	-6.810142558408163
O	-9.563407300755102	5.675316137624489	-7.5841811084081625
O	-11.986246480755103	3.347846607624489	-5.684272648408163
O	-11.432114180755102	-0.3385914353755105	-4.798102398408163
O	-13.074633080755103	-5.760104292375511	-4.647796958408163
O	-11.353216880755102	-5.211358912375511	-8.010851728408163
O	-11.643423080755102	-0.17697686237551058	1.639748391591837
O	-10.889051700755102	-3.7655442423755106	6.117061071591837
O	-7.489346190755102	-2.1466902223755104	6.101258341591837
O	-7.409144780755102	0.8869751076244894	3.753959161591837
O	-7.706282480755102	3.1614469876244895	6.7363539715918375
O	-6.381228860755102	5.902073567624489	2.145412601591837
O	7.304641789244897	6.2284312276244895	-8.264273798408164
O	7.099250069244897	4.57556953762449	-11.661034128408163
O	5.960322929244898	1.2392912376244896	-10.165603948408164
O	7.445885289244899	-2.2026529123755108	-10.318559968408163
O	7.488180259244897	-7.83647229237551	-6.561620708408163
O	-3.613653290755102	-6.536050312375511	9.238761381591837
O	-5.223859820755102	-4.22299641237551	11.874825281591837
O	-3.0171228307551017	-1.1210326829755106	11.660710881591838
O	-4.425034330755102	2.2592992776244896	12.662177681591837
O	-0.9803283297551018	4.731591027624489	8.850002681591837
O	2.689330329244898	4.396967027624489	9.455350281591837
O	5.193087959244898	1.9023047276244895	8.116233491591837
O	8.740871789244897	2.3334774476244893	6.754782481591837
O	11.603078119244898	0.07454381762448947	5.580720771591837
O	10.399802219244897	-0.5827042323755105	-0.792971734408163
O	7.608230489244898	0.8370328076244895	-2.770103538408163
O	5.607475779244898	-1.6449283193755107	-4.8724120484081626
O	2.6446206692448984	-1.7811302073755106	-7.209444198408163
O	2.3899202892448983	1.1204094076244893	-9.294184728408164
O	3.913515369244898	3.3946453776244896	-6.691683638408163
O	0.5525404292448981	3.6216988876244898	-4.993795928408163
O	2.077504799244898	5.076064867624489	-0.6433973984081629
O	-0.7593051437551017	2.6899098576244893	0.4205346415918372
O	-0.20441937575510183	-0.8291780853755105	1.0305397315918372
O	2.2044446392448984	-3.6579464223755105	1.6620107115918372
O	2.267939029244898	-7.2773978223755105	1.5117076915918368
O	4.591796709244898	-8.01386225237551	-1.204784524408163
O	7.440863839244898	-5.780999762375511	-2.104734263408163
O	10.004705519244897	-8.93966951237551	1.5119375815918372
O	7.427212509244898	-6.97952675237551	5.895035511591837
O	7.172730269244898	-3.1726293723755106	5.737394131591837
O	5.677532879244898	-0.5932775473755105	3.4791951615918375
O	2.5587307992448984	1.1820369576244896	4.877700401591837
O	1.7415379192448983	4.763336007624489	4.163600651591837
