23

O	4.729	12.146	42.002
O	3.758	13.499	40.266
O	4.357	13.043	43.015
O	4.317	13.679	45.313
O	3.349	14.458	41.216
O	3.653	14.242	42.616
O	4.729	12.754	44.38
O	4.472	12.356	40.643
O	4.278	13.829	46.669
O	3.534	14.89	44.859
O	4.848	10.381	45.018
O	6.972	11.74	44.461
O	5.747	9.422	45.788
O	7.769	10.699	45.211
O	2.614	15.667	40.711
O	4.89	13.005	47.73
O	5.855	10.567	39.787
O	3.7	14.967	47.032
O	3.221	15.629	45.914
O	3.252	15.12	43.593
O	5.508	11.627	44.703
O	7.073	9.39	45.094
O	4.817	11.523	39.612
