80

O	1.784332353608772	0.9670094909421053	0.39891833496491247
O	2.8655408036087717	0.7670083709421053	2.440739571964912
O	0.851248653608772	0.27560399794210527	1.0170791809649125
O	-0.2946027893912281	-0.9699955300578946	-0.08378790303508754
O	2.1949015136087717	-0.4580202100578947	2.463400541964912
O	1.4442881336087718	-0.8414320700578948	1.4289281819649124
O	-0.4752318833912281	0.10439375794210526	0.7400563919649125
O	2.880751683608772	1.3449929659421054	1.2150000519649125
O	-0.9187340393912281	-0.9975929400578947	-1.2667321280350876
O	0.240747623608772	-2.196158330057895	0.10842926886491247
O	-0.9325034823912282	1.3516674009421052	2.9018541319649125
O	-0.49722679639122813	2.666450369942105	1.4545606619649125
O	-0.05492100639122799	2.2561501799421055	3.6860896819649125
O	-1.214344717391228	3.5699304799421054	2.396167981964912
O	1.465958303608772	-0.6525484500578946	3.8104242519649123
O	-0.753616803391228	0.43208132694210527	-1.6834858680350875
O	2.901911393608772	3.484081509942105	2.642108161964912
O	-0.9580162973912281	-2.2257944500578946	-1.7258681780350875
O	0.11372372360877181	-2.7979303000578946	-1.1231214280350874
O	1.3164830836087718	-2.0594470700578946	0.9483363889649125
O	-0.8806434853912282	1.2150325809421054	1.3547064119649126
O	-0.45339136539122804	3.662932719942105	3.6512249419649123
O	2.755271253608772	2.8291449599421052	1.4283905119649125
O	-4.241585816391228	1.8566848399421052	-8.744889238035087
O	-7.274077896391228	3.6270785199421054	-6.999686478035088
O	-14.977923826391228	3.143543669942105	-0.8899135780350875
O	-12.458013626391228	5.028984659942105	-3.1510378380350876
O	-2.821118806391228	10.792181169942104	-0.27485267603508756
O	-4.280657166391228	12.586123669942104	2.7395998919649123
O	-0.8455412133912281	13.890093969942104	3.831389701964912
O	-0.20096687139122804	15.552949569942104	0.40936401596491245
O	-3.055179496391228	18.394810869942106	4.230489921964912
O	-10.285459476391228	11.497869969942105	1.2016132519649125
O	-10.476484366391228	2.2805190099421053	5.152420981964912
O	-8.221089666391228	5.168813189942106	6.487800141964912
O	-5.122306556391228	3.0321547599421055	7.337061991964912
O	-4.010414646391228	5.617105349942105	9.923089501964911
O	-3.290567396391228	0.4795781532421053	13.933543951964912
O	-12.844017826391228	-6.560757250057895	7.695692571964912
O	-12.674071426391228	-3.336433180057895	5.629879381964912
O	-8.845188496391229	-3.1196575300578946	6.141342121964913
O	-8.393849736391228	-6.824378100057895	5.243279731964912
O	-8.675393616391228	-2.992854310057895	1.1534116139649124
O	-5.178523276391228	-4.724263980057895	1.4023388219649124
O	-6.198911906391228	-7.988995870057894	-0.28623536403508754
O	-3.8373359663912283	-7.388803450057894	-3.2089591880350876
O	-1.189901449091228	-8.892513710057894	-0.8089234330350875
O	0.643235953608772	-9.549389730057896	-6.250243328035087
O	3.858901843608772	-8.406437540057894	-7.986755288035088
O	1.9861644036087718	-6.806747500057894	-10.965550748035088
O	-0.24862778439122812	-4.923769300057895	-8.458499908035087
O	2.861637343608772	-3.5388867600578946	-6.682096248035088
O	3.911641583608772	-1.8648319400578948	-10.005418548035088
O	0.5499489736087719	-0.01418254205789471	-10.130843248035088
O	0.797000503608772	1.1802534919421053	-6.617549508035088
O	4.357699413608772	2.3748322899421055	-7.083428878035088
O	3.4487325536087723	4.275079939942105	-10.298063348035088
O	0.9590557036087719	6.282765179942105	-8.146912618035088
O	3.455911003608772	6.853684489942105	-5.291950198035088
O	6.185904033608772	8.022165129942106	-7.713365368035087
O	6.676996533608772	12.236222769942106	-5.117214988035088
O	11.625857173608772	6.851022659942105	0.002346588964912466
O	8.592512193608773	4.812525209942105	-1.2610853880350874
O	7.419575443608773	7.969711039942105	-3.227541068035088
O	10.916310973608772	8.618163689942104	-4.639240248035088
O	11.190355473608772	-1.4222740900578947	-2.474255338035088
O	12.779405373608773	-4.1129808700578945	1.9270905619649126
O	9.820171873608773	-1.6478066600578947	2.0525660719649124
O	7.4457344936087715	-4.534224930057895	1.1704328719649124
O	9.097403073608772	-6.854487290057895	3.817652781964912
O	8.496497343608773	-4.184515430057894	6.521665521964913
O	4.942988803608772	-3.6858019200578944	5.413462451964913
O	4.032309883608772	-7.365083450057894	5.539610431964912
O	4.173463613608773	-4.634941290057895	10.660380751964912
O	0.7128838936087718	-4.237382880057894	8.915316071964913
O	-0.5453948923912281	-7.1609018100578945	6.709790081964912
O	-4.214122506391228	-7.7446091600578955	10.187568251964912
O	-0.17192981339122815	-13.383181730057895	2.7565112119649124
O	3.9305369936087717	-13.588690730057895	-0.6280992340350875
O	9.709819073608772	-10.935132330057893	-0.8440999580350874
