77

O	2.18796042122459	-0.7622994974519672	1.522925675098361
O	2.2638980512245896	-2.194887217451967	1.729258725098361
O	3.1751920412245895	-3.0022383674519673	1.157285105098361
O	2.72250455122459	-4.319383667451968	0.002610270098361095
O	4.19911750122459	-2.2664476374519675	0.7451001280983611
O	4.35802757122459	-0.8843687974519674	0.7454123580983611
O	3.3366789212245895	-0.1758722384519673	1.2062008250983611
O	3.44559761122459	1.2612610805480327	1.279167905098361
O	2.2040026312245895	1.7647863525480327	0.6936164660983611
O	2.4053812012245896	3.2033327425480325	0.4871112810983611
O	3.5229856712245895	3.0149440925480326	-0.5959846939016389
O	2.3582802712245896	2.401761012548033	-1.749782564901639
O	1.66191081122459	1.1963041135480328	-0.5271722909016389
O	2.4108133212245897	0.3006676809480327	-1.0436423049016388
O	1.91615700122459	-1.0094893974519674	-1.412112034901639
O	2.8282739512245896	-1.6538465774519673	-1.7940638449016388
O	-8.92688256877541	-2.323580387451967	-3.358748404901639
O	-6.6339109587754095	-4.828570427451967	-5.123638094901639
O	-4.08633833877541	-6.887581227451967	-3.144649284901639
O	-1.3619198387754101	-9.380632797451966	-3.9138683349016388
O	1.8228224812245901	-7.836862707451968	-3.178190224901639
O	3.6991994712245897	-10.863260927451966	-2.197209434901639
O	0.8681893912245899	-12.805557727451966	-0.5647578439016389
O	2.1271495612245896	-8.861968127451966	-8.215645894901638
O	-1.41759512877541	-7.530645017451968	-7.797024214901639
O	-2.4195806187754103	-3.8882603874519672	-7.730321944901639
O	-4.38242021877541	-1.1956190074519673	-5.922411354901639
O	-3.5009184187754103	-0.8897888574519675	-2.3207672049016392
O	-4.11207504877541	2.8061805425480326	-1.603716014901639
O	-4.90817013877541	4.324032502548032	-4.985121094901639
O	-1.9449552287754102	5.560833032548032	-7.038549734901639
O	-1.7491747387754102	5.611284552548033	-10.846996044901639
O	-3.6772528687754105	8.862393102548033	-11.301584244901639
O	-6.56520307877541	7.157171412548033	-9.490860464901639
O	4.13468067122459	-3.0378059374519673	-14.165398944901638
O	4.56503271122459	-0.22349729745196728	-11.674454844901637
O	5.8296892612245905	-0.1729762604519673	-8.087642634901638
O	7.1819801412245905	2.7483376925480325	-6.007668174901639
O	8.81606898122459	2.9569388625480326	-2.558187844901639
O	10.41673958122459	5.614293522548032	-0.4662336629016389
O	7.33647456122459	5.720829462548033	1.729038415098361
O	5.28693903122459	7.274840162548033	-0.9415734749016389
O	5.93516233122459	9.651123972548033	-3.781752944901639
O	3.4352644212245895	8.588680762548034	-6.418175794901639
O	3.5689791912245896	5.243047082548033	-8.180106374901639
O	1.03377481122459	2.4134338325480327	-8.051350874901638
O	0.16100994322458984	0.3274823371180327	-11.075344244901638
O	0.12617575322458985	-3.4305611674519674	-10.781388544901638
O	7.59288896122459	-1.5174342974519675	10.348559555098362
O	8.595495051224589	-2.3929472974519674	6.799461975098361
O	9.66833299122459	-6.073171407451968	6.954175345098361
O	8.52944314122459	-8.111503217451967	3.936884745098361
O	4.95038973122459	-10.294125027451967	7.502445425098361
O	5.36455634122459	-6.550244307451967	7.548092735098361
O	3.73207277122459	-3.3875603874519675	6.598365885098361
O	3.0162744612245898	-1.0795928774519674	9.346152385098362
O	3.4238480812245897	2.4876780325480325	8.136165665098362
O	1.31374740122459	4.544222912548032	10.550228955098362
O	0.89832793122459	8.303311872548033	10.207738955098362
O	-8.836523258775411	6.663040812548033	0.5939763270983611
O	-12.27695361877541	2.8336823225480328	5.345700845098361
O	-10.62023881877541	2.8634696925480325	8.753569345098361
O	-7.20678293877541	5.039157732548032	14.480731855098362
O	-4.73592553877541	-5.891658217451967	2.674314405098361
O	-7.74436471877541	-3.617760807451967	2.225747725098361
O	-8.397259898775411	-1.7497086774519675	5.436594305098361
O	-8.28004065877541	1.7131300325480328	3.852591195098361
O	-6.3778514387754095	4.799032032548032	5.135545225098361
O	-5.04471133877541	7.728300192548033	3.126308395098361
O	-3.5694943587754104	10.412893972548034	7.891389525098361
O	-1.64648375877541	7.446857852548033	6.542987065098361
O	-2.62969550877541	3.8472124425480327	7.398517825098361
O	-0.2566490414754101	1.1562781855480326	6.261314075098361
O	-1.6047055687754102	-2.3970320874519673	6.2336415650983605
O	0.24549673222458984	-5.630309537451967	5.589832775098361
O	0.3065346842245899	-7.618175567451967	8.654124685098362
O	10.931337081224589	-4.2307789474519675	1.069141019098361
