33

O	2.654425859451294	-0.10848330706357956	-0.9816160202026367
O	1.8364053964614868	-1.0439218282699585	-0.7980546355247498
O	2.280102014541626	-2.4808828830718994	-0.9073438048362732
O	3.749727725982666	-2.509331464767456	-1.245620846748352
O	4.512137413024902	-1.849852204322815	-0.21845941245555878
O	5.91282844543457	-1.7077935934066772	-0.23916621506214142
O	6.659510612487793	-2.207979917526245	-1.2776250839233398
O	8.043092727661133	-2.061636447906494	-1.287343144416809
O	8.693218231201172	-1.417312741279602	-0.265129417181015
O	7.9410600662231445	-0.9143605828285217	0.7793347835540771
O	6.55285120010376	-1.0607149600982666	0.7899397015571594
O	0.5036643743515015	-0.7036407589912415	-0.4896678030490875
O	0.1600905954837799	0.7073237895965576	-0.4035528898239136
O	1.15788733959198	2.0640132427215576	-0.6263779997825623
O	-1.0762475728988647	1.241376519203186	-0.11659466475248337
O	-1.1497632265090942	2.5973737239837646	-0.09435313940048218
O	-2.3892111778259277	3.4015495777130127	0.15796330571174622
O	-2.4084112644195557	4.374587059020996	1.1349742412567139
O	-3.5149269104003906	5.161313533782959	1.3799519538879395
O	-4.64771032333374	4.967316150665283	0.6174172759056091
O	-4.6644062995910645	4.002808094024658	-0.3688717484474182
O	-3.5348851680755615	3.2383430004119873	-0.5797876715660095
O	0.015849465504288673	3.2764296531677246	-0.35841071605682373
O	-2.227212905883789	0.324465811252594	0.16259896755218506
O	-2.095414876937866	-0.9228866696357727	0.12463510036468506
O	-3.525233745574951	0.7787290215492249	0.48610591888427734
O	-4.6442155838012695	-0.061700787395238876	0.7597503066062927
O	-4.384119033813477	-1.492557406425476	0.6893858909606934
O	-4.543341636657715	-2.1688997745513916	-0.4883055090904236
O	-4.289307594299316	-3.5211446285247803	-0.5213945508003235
O	-3.8774611949920654	-4.219771862030029	0.5996119976043701
O	-3.7234675884246826	-3.5139577388763428	1.7792707681655884
O	-3.9775147438049316	-2.168799877166748	1.8067350387573242
