33

O	23.67318413389582	6.579112912271449	58.51413824353838
O	24.646790323532116	5.7683472361554236	58.40153462135566
O	25.743838271998918	5.8828009070337615	59.319200077649626
O	25.407477959248524	4.79433004619538	60.36036854624305
O	24.26406839438075	3.9987800610488957	60.31483543923489
O	23.197824277783845	3.110741096058971	60.723805480985064
O	23.466845330633518	1.7553748670692169	60.99600098819361
O	22.642787824866257	0.8416919563467902	61.56994087095156
O	21.341195268860275	1.0408227123570135	61.288667595968256
O	20.957076222445934	2.2639512131506443	60.879125669555656
O	21.883778552805143	3.1563877915573135	60.43743099360899
O	24.350945124510837	5.053973388508787	57.195578047399955
O	23.40734348151869	4.0543163292697635	57.682420420988414
O	24.339575817438174	2.690214566025563	57.97145205487102
O	22.300739391533288	3.505356057302539	57.29823192166499
O	21.977873474283996	2.2885582207346977	57.70007428458419
O	20.87153031965505	1.3088581140921445	57.62972587607982
O	20.548818756407023	0.9880186607328798	56.30578643553453
O	19.40600025829228	0.18613411562901394	56.20380378479407
O	18.866241588928673	-0.4697059574839533	57.31980374190475
O	19.840941086097388	-0.7858611812355578	58.257505107343256
O	20.885503658641703	0.08395212549095366	58.33195761223989
O	23.194724820606893	1.6095279520843762	57.9142306547909
O	21.417395373710406	4.2007160580545335	56.38871591648671
O	21.026990090382537	3.908743719482491	55.255885219733926
O	21.166308617259634	5.451248878360323	56.97859428861541
O	19.785104024267707	5.841958384792312	56.97943517621515
O	18.834716364524407	4.811611635101485	57.541009939561796
O	18.705955692820183	3.685265551938007	56.71596296887376
O	17.89134784908397	2.7105161521352055	57.194435275599595
O	17.83890861889381	2.4777583017008404	58.51852594637216
O	18.509504748780742	3.340919875750518	59.31483962180736
O	19.297589544052496	4.3032523709456605	58.762168140494445
