33

O	23.142	3.048	55.996
O	22.66	3.016	57.106
O	22.285	1.71	57.773
O	22.592	0.505	56.9
O	22.185	-0.735	57.569
O	20.952	-1.393	57.37
O	20.577	-2.486	58.141
O	19.356	-3.1	57.912
O	18.513	-2.626	56.92
O	18.887	-1.533	56.156
O	20.106	-0.917	56.382
O	22.419	4.18	57.797
O	23.102	5.401	57.613
O	22.764	6.379	56.387
O	24.138	5.95	58.366
O	24.551	7.183	57.845
O	25.609	8.057	58.398
O	25.345	9.409	58.55
O	26.316	10.258	59.059
O	27.554	9.758	59.425
O	27.82	8.405	59.275
O	26.85	7.553	58.76
O	23.828	7.533	56.714
O	24.719	5.333	59.581
O	24.521	5.816	60.671
O	25.498	4.194	59.452
O	25.898	3.332	60.584
O	24.924	2.219	60.888
O	25.304	0.893	60.809
O	24.381	-0.104	61.095
O	23.084	0.219	61.462
O	22.702	1.55	61.539
O	23.625	2.543	61.252
