90

O	1.2769595769526307	3.4175125914210525	2.4071173782807014
O	0.6334300679526308	2.3492723254210524	2.1567934382807015
O	-0.6912980030473692	2.2063084996210525	2.6891284982807018
O	-1.5676415630473692	2.6069383644210524	1.4835346482807017
O	-1.0593311010473692	3.0223271024210527	0.25413188828070155
O	-0.9756775190473692	3.6208293514210528	-1.0602285458192984
O	-1.6453512230473692	3.0348785694210525	-2.1518691217192982
O	-1.8356412930473691	3.5578046214210524	-3.3902681917192985
O	-0.8296220560473692	4.354868231421053	-3.7971168017192984
O	-0.0151241920473692	4.880690951421053	-2.8636185117192987
O	0.007346291952630812	4.358991661421053	-1.6075773617192983
O	1.5986156069526307	1.5233027164210524	1.4946932082807014
O	1.5261197669526307	2.0388091374210524	0.13244826828070155
O	0.4647161759526308	1.0092450114210525	-0.6592525347192983
O	2.336804076952631	2.3281621904210525	-0.8332621207192984
O	1.9311048869526306	2.2801667354210524	-2.0900123997192983
O	2.3971258369526307	2.5783095154210525	-3.4621245417192985
O	3.5585437469526306	1.8641933704210525	-3.7799970317192986
O	4.109860996952631	2.2424703179210526	-5.009797521719298
O	3.3857861769526307	3.0074675344210524	-5.935765361719298
O	2.0189286869526306	2.7792998644210525	-5.841334421719298
O	1.5603017069526308	2.4795449964210525	-4.595125111719298
O	0.9197463869526308	1.2991518434210525	-2.1393684717192984
O	3.7137324469526307	2.6701349364210527	-0.5536830567192984
O	4.768488516952631	2.1293527293210524	-0.8942909787192984
O	3.666527146952631	3.7201300414210525	0.3791166682807017
O	4.536663986952631	4.821662641421053	0.07933580828070164
O	4.401956366952631	5.374011081421052	-1.3195860627192983
O	4.878790406952631	4.491934861421052	-2.299641241719298
O	4.745247456952631	4.925275641421052	-3.5791099317192985
O	3.673624406952631	5.6622599914210525	-3.9235229117192985
O	2.8535341269526304	6.049048511421052	-2.920173961719298
O	3.058193216952631	5.5837418614210526	-1.6575530287192985
O	9.51918066695263	-4.9621696185789474	-9.424760511719299
O	6.260407176952631	-6.4690847685789485	-8.055766821719299
O	5.300420936952631	-3.090445668578947	-6.974295261719298
O	1.6105214369526308	-3.9097102385789477	-6.847413981719298
O	-0.8192611520473692	-6.439906148578947	-8.054523581719298
O	-5.561222013047369	-3.306868228578947	-6.5445541117192985
O	-6.929786983047369	-5.794955688578947	-3.9384164117192983
O	-6.113803453047369	-4.264932178578947	-0.5671269357192984
O	-6.371355183047369	-5.939622758578947	2.7736147682807015
O	-5.281038703047369	-2.6225755085789477	4.413804458280701
O	-8.43200427304737	-0.6943503785789473	3.4857209682807015
O	-13.47496089304737	0.7358089014210525	0.10871608828070167
O	-14.04564489304737	-0.4609551085789474	-3.4399639117192984
O	-6.941627773047369	9.384706931421052	2.7206864982807017
O	-4.432441223047369	6.670577651421052	2.8291489582807015
O	-1.305700953047369	6.123327221421052	5.021383708280702
O	1.0544933169526307	7.524794841421052	2.3947784282807016
O	-0.7056288360473693	10.793143591421051	1.6201748682807016
O	-2.7431826230473693	9.894792831421052	-1.4528765907192984
O	-6.502914563047369	10.240195071421052	-1.6679887277192984
O	-4.667446003047369	12.421702271421053	-6.213959791719298
O	-1.6329621930473692	12.644156471421052	-8.499418971719297
O	-0.2134046545473692	9.309028081421053	-7.832333281719299
O	-3.311722473047369	7.479526491421053	-8.8836131617193
O	-3.3835163630473692	9.508827741421053	-12.040412111719299
O	0.24581846295263077	8.764951141421053	-12.862735011719298
O	-0.3700656618473692	4.991123571421053	-12.709544211719297
O	-4.425867903047369	0.5686970614210525	-11.648371211719297
O	-9.018190323047369	1.4505204954210527	-8.606535271719299
O	-8.85831644304737	-0.3833620385789476	-5.295886661719298
O	-10.92780389304737	-3.241083088578948	-3.8521229917192983
O	-10.68967769304737	-3.070166918578947	-0.05864491171929842
O	0.9623864369526307	-13.500567028578947	-4.394157651719299
O	1.5505459869526308	-5.423472188578948	12.624325288280701
O	-0.9511820130473692	-5.774555268578947	9.804148688280701
O	-1.5651926730473693	-5.688463688578947	4.045035898280702
O	-1.6268772730473693	-6.646404818578947	0.34655892828070156
O	-1.9594424530473693	-3.0716276985789475	-0.7448411377192984
O	1.5323415469526307	-2.157585588578948	0.6414738682807015
O	4.672369836952631	-3.2909489785789474	-1.4433078657192984
O	7.248536316952631	-3.227962108578948	1.2741952082807018
O	7.823008436952631	-4.668811998578947	4.7101775582807015
O	7.763335216952631	-1.9540775685789478	7.395998258280701
O	9.21722656695263	-3.0049082585789475	10.758190588280701
O	14.01673190695263	8.383226661421052	2.617394388280702
O	15.18645490695263	4.921865281421052	3.654155128280702
O	12.09012200695263	-0.18233720857894742	5.864749658280702
O	11.49579620695263	1.3898554854210525	9.280143388280703
O	7.918725856952631	1.8655093724210525	10.498574088280701
O	4.326966576952631	5.4140486314210525	9.854733888280702
O	2.3015302169526306	1.0296858614210525	12.4382287882807
O	4.281429926952631	-2.243253128578947	11.449694788280702
O	3.162727136952631	-3.507236388578947	8.008201728280703
O	3.631935256952631	-7.008433328578947	6.597408518280702
O	3.2621064569526306	-5.8850832485789475	2.990100658280702
O	3.7903973369526307	-7.749984398578947	-0.30343989471929844
O	3.0367253969526304	-11.874170428578948	2.1354929382807017
