70

O	-0.11581551280701768	1.1904506529947363	-2.508657582508772
O	2.723604230192982	0.022531097994736293	-1.2704524985087717
O	1.9121176801929824	-1.0330587100052637	-0.7076412451087718
O	-0.12089651580701771	-0.009373385005263718	-3.345806432508772
O	0.8967639901929823	-3.3403375800052637	-1.0169192685087718
O	2.074793910192982	-1.9822588100052636	-2.6510451725087716
O	1.2101620001929823	1.6279451999947363	-2.0903478125087718
O	1.9227725601929821	0.3913430859947363	-2.415125502508772
O	1.8207756901929824	-2.232687040005264	-1.4221054215087718
O	-0.2632354088070177	0.3410354349947363	-1.3554294045087718
O	1.9121537301929823	2.6893188899947362	-2.8505315725087716
O	0.6892841201929822	-4.143716880005264	-2.336577572508772
O	-0.3653406848070177	-2.7325359600052637	-1.6557561925087718
O	-10.164135669807019	4.439365479994737	5.137668577491228
O	-6.6065700698070176	3.1204325099947363	5.675810597491228
O	-4.966893089807018	6.453568049994737	4.754061037491228
O	-1.2720764448070176	6.920501519994737	5.358440047491229
O	1.2165091201929823	9.690054999994736	4.694952097491228
O	3.954915620192982	8.265822069994735	2.482085397491228
O	1.5209377401929822	12.681181309994736	0.23229572849122815
O	-1.5942470898070178	10.850119809994736	1.514562347491228
O	-3.599090679807018	7.921172989994736	0.22291672349122815
O	-4.958984669807018	4.486308879994737	0.9268937074912282
O	-2.2902028198070177	2.0885691199947365	2.137780207491228
O	-4.013544749807018	-1.1478247900052638	0.8777950674912283
O	-6.851048319807018	-0.22800817100526372	-1.4229990895087719
O	-6.295279949807018	0.5014261129947363	-5.150358202508772
O	-8.170156949807017	3.0237945799947363	-7.266345272508771
O	-11.070988979807018	0.6030737679947362	-7.912313612508772
O	-11.718876879807018	0.2760964172947363	-4.179606642508771
O	-10.830637479807018	3.7047873699947362	-2.809365142508772
O	-2.9154779298070173	8.001535249994737	-9.38847071250877
O	0.2912663141929823	6.021846279994737	-9.294663842508772
O	1.3923125001929824	2.454080149994736	-10.215534772508772
O	4.137974540192982	0.9586115579947363	-7.969766032508772
O	6.579066630192982	-1.880823990005264	-8.503846092508772
O	5.266298060192982	-4.312221840005264	-6.065895032508772
O	1.6747468901929825	-4.383394520005264	-7.652886612508772
O	-0.3417207078070177	-4.201377900005263	-10.800175592508772
O	-2.941355049807018	-1.6234461500052637	-9.778217212508771
O	-2.9984910898070174	2.139135809994736	-9.437548932508772
O	-3.316724189807018	3.8108110099947363	-6.0089619725087715
O	-4.687241039807018	7.286832029994737	-5.551939002508772
O	-3.1725469598070175	9.953950389994736	-3.343161532508772
O	13.153081420192983	-4.217907510005263	2.428628837491228
O	12.248281520192982	-1.1392328600052637	0.3247506974912282
O	11.583853720192982	0.9923769259947364	5.088989557491228
O	8.685100810192981	-1.0118648600052638	3.765950927491228
O	8.982847350192982	-4.555834620005263	4.949542967491229
O	7.499332820192983	-6.466695570005263	2.061326607491228
O	6.451843020192982	-9.832212190005265	3.4016765374912286
O	-7.679115089807018	-6.170187840005263	2.985701687491228
O	-7.6149462498070175	-7.899672880005263	6.360831997491228
O	3.948379840192982	3.7540511299947363	10.663223407491227
O	1.1047265701929823	2.392731369994736	8.561717967491226
O	-2.350186439807018	0.7399588339947363	9.02699413749123
O	-3.639710519807018	-4.495101040005263	7.142907407491228
O	-2.613549349807018	-7.487246430005263	5.086489377491228
O	-3.7917926998070177	-8.051658920005265	1.5273807774912282
O	-5.176375009807018	-11.496756290005264	0.8509463474912282
O	-1.4927036338070176	-15.533705890005264	-1.0790710695087717
O	-0.8750832778070177	-12.898516890005265	1.535901807491228
O	1.0359923801929822	-9.685572020005264	1.3387144174912282
O	1.8634353101929821	-7.738082640005263	4.529331277491228
O	4.0385043901929825	-4.737771900005264	4.203790717491228
O	4.112797540192982	-2.230994030005264	6.9399060274912285
O	6.221333560192982	0.8935738049947364	6.708660707491228
O	8.639563570192982	0.6063935599947363	9.61289810749123
O	13.204658520192982	3.605950739994736	-6.136178272508772
O	11.201993320192981	4.787997909994736	-3.1442191925087717
