44

O	-14.040886447876133	45.707678542067974	0.5573788579708773
O	-14.07851735527625	47.048431600644825	0.3753792767735765
O	-12.873544426062965	45.022315230309594	0.9628985422232806
O	-12.905731614524532	47.708740761147574	0.48933550311359364
O	-12.097556923122816	45.876193343574684	-1.938502069302289
O	-10.109273556879838	43.34934580006811	2.3713485085270136
O	-8.19797443496668	42.26458935823	1.950799624467865
O	-7.228639136824592	45.995816716230536	2.1319710628719952
O	-9.496889911858656	45.45922015213745	2.832372381176026
O	-13.282097061308257	46.237534107871426	-2.5959933700320383
O	-9.854198929309877	42.87869393632793	3.6264621666150783
O	-7.948456577299677	42.065281242786476	3.3245453272065966
O	-7.390538367062969	46.927880649802646	3.106620154005329
O	-9.592023633177584	46.55658315269619	3.579876432885885
O	-11.691413172433148	45.68151168345723	1.0789545113697834
O	-11.15742129582345	47.823247050022026	-2.451450510355137
O	-9.032283931478595	43.22908791105431	1.5608557550593258
O	-8.252981328173727	45.240183170874225	2.2201900257466436
O	-11.80391435442086	46.96205531042959	0.6852866472985751
O	-11.15480311889445	46.832509835384315	-1.5391753454201922
O	-13.583480205303678	47.59346453786504	-2.753089160622447
O	-12.41915016407141	48.3639835738388	-2.7587555843666487
O	-8.633728936224307	42.762399185120714	4.322080105408523
O	-8.588812575090163	47.40586219811008	3.623604637013103
O	-6.8539301882927965	49.260669258468646	0.8112051547681621
O	-7.7006552037866784	48.47504623937874	0.17864432509003558
O	-10.5059939226736	44.96128150169528	0.6912625334657437
O	-9.97933710226947	48.42140967917907	-2.9698739405668912
O	-14.265481917719155	49.62984246720815	-3.1726470559461606
O	-6.611443119091672	44.24461371158918	4.842027854850323
O	-9.670967092433619	49.6817692005261	3.3057283428150996
O	-10.874865885310456	47.95736844958027	1.21883357177102
O	-10.01703208021967	46.987712849344526	-0.6738830615994991
O	-9.100702284114657	48.72212691571946	0.25170776426124186
O	-8.343423288190492	44.449026329063415	1.02345377190604
O	-9.2396702082233	45.12300448650459	0.2854060798416337
O	-9.784846951996823	47.457736469150404	0.6024561762194266
O	-9.449767170975742	49.64653412889851	-2.6940904833613653
O	-10.690645766632542	43.9467407112822	-0.09906558334886517
O	-9.216620115506146	47.69053941859882	-3.6489204199363625
O	-14.722495620097085	48.36402555354807	-2.672007956189892
O	-12.98845713833158	49.62499868722185	-2.5344770446927343
O	-7.877218884999517	43.71773508293774	5.0282670878859275
O	-8.665796731060524	48.793034321955645	3.4477212258282064
