34

O	-8.699	42.19	-0.216
O	-10.561	48.006	5.946
O	-8.366	41.688	1.024
O	-8.479	43.521	-0.493
O	-11.443	48.843	5.308
O	-9.569	47.355	5.237
O	-7.831	42.517	1.982
O	-7.95	44.351	0.473
O	-11.316	49.026	3.942
O	-11.415	45.41	-1.435
O	-12.224	44.844	-2.412
O	-9.442	47.532	3.87
O	-13.284	45.628	0.109
O	-7.625	43.854	1.721
O	-10.328	48.382	3.222
O	-11.93	45.792	-0.196
O	-13.554	44.685	-2.097
O	-14.072	45.058	-0.882
O	-9.775	49.815	-1.544
O	-10.442	48.677	-1.317
O	-8.353	46.817	3.14
O	-13.863	46.014	1.447
O	-15.678	44.229	-2.11
O	-7.061	44.755	2.774
O	-10.26	48.639	1.757
O	-10.979	46.401	0.795
O	-11.565	48.604	-0.34
O	-8.114	45.485	3.45
O	-11.236	47.879	0.933
O	-14.825	45.312	1.866
O	-7.701	47.422	2.303
O	-13.362	46.969	2.113
O	-14.497	44.151	-2.94
O	-15.442	44.802	-0.811
