69

O	-0.5153766735714277	0.3542203255428571	-4.660812325794286
O	3.3823398744285726	-5.726836604457143	-1.8239643157942855
O	0.5864971494285722	1.1194716655428572	-4.898594265794285
O	-0.3805985355714277	-0.763207755457143	-3.8997599257942857
O	2.2390346644285724	-6.141333034457142	-2.442952755794286
O	3.5694239644285726	-4.343810994457143	-1.6671996557942856
O	1.7392069944285722	0.41167210554285694	-5.079972215794285
O	0.8026974634285723	-1.451884253457143	-4.140618195794286
O	1.1986601644285724	-5.267267404457143	-2.5548451057942856
O	-1.1702388355714277	-5.3878742644571425	1.5498222942057143
O	-1.7696614355714277	-6.348022874457143	2.3964392342057144
O	2.5177792344285725	-3.5249308444571428	-1.8529557157942858
O	0.8087574944285723	-6.581504874457144	1.7142315542057145
O	1.9192162444285723	-0.7393939234571429	-4.415446865794285
O	1.3063443344285723	-4.041163194457143	-1.9671711557942855
O	0.0436215414285723	-5.741491634457143	0.9664452042057144
O	-1.2673004155714278	-7.658443674457143	2.4437036142057145
O	0.13340748842857228	-7.648311654457142	2.3346425842057146
O	2.1366451044285726	-2.760280004457143	1.0537609242057142
O	1.3312186744285723	-3.7115558144571428	0.6830315142057143
O	2.7470656044285726	-2.132596599457143	-2.1427951557942855
O	2.1275086244285726	-6.888208024457143	1.1501153042057144
O	-0.5817532675714278	-9.684773874457143	3.1770240642057144
O	3.2211933744285726	-1.394852645457143	-4.519651485794285
O	0.18537756742857228	-3.2125550744571427	-1.5150105327942858
O	0.1672542334285723	-5.425297414457143	-0.49277681679428564
O	-0.0930224111714277	-3.452460234457143	0.5886497142057144
O	3.5262908744285726	-1.979800141457143	-3.2704654357942857
O	-0.5076462785714277	-4.125021164457143	-0.6435181307942857
O	3.1710759144285725	-6.271856544457142	1.4162660242057146
O	1.929048104428572	-1.294265191977143	-1.8099134957942855
O	2.2024390644285723	-7.922127134457144	0.2533518482057143
O	-1.6910686355714277	-8.838172944457144	3.0311220442057145
O	0.4382334424285723	-9.015981334457143	2.4874087242057143
O	-7.980200355571428	2.387235115542857	-9.866049455794286
O	-2.7841284055714275	1.270158705542857	-10.131279325794285
O	-4.665551575571428	-2.040034990457143	-10.121562305794285
O	-1.5863284755714278	-4.246156494457143	-10.702258525794285
O	0.30371740742857234	-2.646438664457143	-7.912583845794286
O	-2.030428965571428	-4.401848734457143	-5.361728805794286
O	-3.5265999155714276	-7.685310784457142	-4.555099865794285
O	-6.588129565571428	-6.257708904457143	-2.7517377557942857
O	-9.039932445571427	-3.772846284457143	-4.1649495157942855
O	-8.988312255571428	-1.714850446457143	-0.8968963157942856
O	-5.230917375571428	-1.003856990457143	-1.5409433777942856
O	-5.770825665571428	0.18092454554285697	-5.099308275794286
O	-8.681283205571427	2.299804285542857	-3.8263116557942856
O	-6.433731225571428	3.9152906755428574	-1.1792285667942857
O	-3.8242348755714275	4.570522365542857	-3.9020169757942855
O	4.167066624428572	-4.299031394457143	8.365673654205715
O	1.2015914344285723	-4.694074174457143	6.136250854205715
O	-1.2813893155714278	-3.0224013244571433	8.650944944205714
O	1.1162420444285723	-0.21288634445714294	9.246368824205714
O	1.7620432344285724	0.2622450855428571	5.494086354205715
O	-2.0370314555714275	0.342930485542857	4.702080274205715
O	-2.6925634555714275	2.736895135542857	7.495539594205715
O	-0.021740003571427705	5.080037345542857	6.129656334205714
O	-1.2216566655714278	4.674834835542857	2.5303982342057143
O	9.749666924428572	-3.396421324457143	7.451555134205714
O	10.198691804428572	-3.485311854457143	3.6630676542057143
O	6.513343344428572	-3.141430524457143	3.4398781242057144
O	6.2891282244285724	-0.05723379445714305	5.431712064205715
O	9.243746054428572	1.374104645542857	3.408440684205715
O	7.372132024428572	0.5336276655428569	0.15453733920571433
O	4.283778234428572	2.417676505542857	1.3971902742057143
O	6.319693454428572	5.407975685542857	2.5930763942057147
O	8.078291604428571	5.589626145542857	-0.7531126094942856
O	4.759087984428572	5.135664635542858	-2.7015136057942857
O	3.0267648044285727	7.898289165542856	-0.8238759512942857
