34

O	6.856555938720703	1.5324368476867676	0.8026639223098755
O	1.1097168922424316	-1.4500960111618042	-3.2828922271728516
O	6.397603988647461	2.2516965866088867	-0.30424731969833374
O	5.980919361114502	1.1534405946731567	1.765472650527954
O	0.17766360938549042	-2.3981006145477295	-2.949406623840332
O	1.6300710439682007	-0.6466742157936096	-2.3042242527008057
O	5.061933994293213	2.5815906524658203	-0.4287135601043701
O	4.650207042694092	1.4672720432281494	1.666780710220337
O	-0.1964109241962433	-2.4998414516448975	-1.6309714317321777
O	-1.7638627290725708	-0.24565546214580536	1.2464723587036133
O	-2.0264809131622314	1.064337968826294	1.5436030626296997
O	1.2783430814743042	-0.7181292772293091	-0.9629034399986267
O	-3.172910690307617	-0.1517939418554306	-0.6381117105484009
O	4.215109348297119	2.1732051372528076	0.5760762095451355
O	0.3321942389011383	-1.6863245964050293	-0.6496555805206299
O	-2.3196353912353516	-0.8743876218795776	0.16905833780765533
O	-2.889605760574341	1.7749062776565552	0.7173872590065002
O	-3.4672093391418457	1.1697686910629272	-0.37843453884124756
O	-0.5419828295707703	-1.917091965675354	4.062992095947266
O	-1.0638790130615234	-2.8302969932556152	3.2181386947631836
O	1.8684146404266357	0.1586383730173111	0.03606148809194565
O	-3.81628680229187	-0.7508572936058044	-1.8222404718399048
O	-4.471574783325195	3.2005858421325684	-0.1302892565727234
O	2.745586395263672	2.499253749847412	0.5056256055831909
O	-0.04326256737112999	-1.7560319900512695	0.789842963218689
O	-2.1155054569244385	-2.2704029083251953	-0.2483033388853073
O	-1.8968961238861084	-2.4089057445526123	2.0832808017730713
O	2.1626181602478027	1.4936929941177368	-0.32545167207717896
O	-1.1159131526947021	-2.947892904281616	0.7908966541290283
O	-3.1951372623443604	-0.5671841502189636	-3.043703317642212
O	2.1385555267333984	-0.19084836542606354	1.2071051597595215
O	-4.874584674835205	-1.4071862697601318	-1.8012735843658447
O	-3.354224681854248	3.0858840942382812	0.7390745878219604
O	-4.280130386352539	2.110992193222046	-1.0197103023529053
