64

O	1.1555288905000003	5.592440154560975	4.165372639329268
O	2.5105173805000005	5.4948692445609755	4.046866549329268
O	0.3173231685000002	4.825318844560975	3.406134809329268
O	-0.9253418024999998	1.289677751560975	3.9014556193292678
O	2.9493054305000004	4.168110454560975	4.021268379329268
O	-0.5695532076999998	1.531701598560975	5.2526338893292674
O	0.8290396305000002	3.608880794560975	3.0818607893292675
O	-1.7299844894999996	2.279083274760975	3.2118490493292677
O	-2.8021934794999996	2.522892240560975	4.021866279329268
O	2.1887230605	3.468457554560975	3.126089949329268
O	-1.0690964594999999	2.7905214665609748	5.6415711993292685
O	-2.4699875395	2.7798264035609748	5.361948129329267
O	0.20582843350000013	2.815748344560975	2.043520420329268
O	1.4440315105000003	2.333645569760975	1.349534724129268
O	-1.1173441034999998	2.7562079285609746	2.0017704563292678
O	-4.0642510595	2.768194373560975	3.4506556793292678
O	2.5167637705000003	2.2769507316609747	2.4772703493292676
O	-1.9074131894999997	4.164816384560975	7.060678209329268
O	-4.9500162495	1.8205644065609747	3.559631219329268
O	1.4307344805	1.093361194560975	1.3388022135292679
O	-4.8381394995	3.6914942545609746	4.2694027393292675
O	-0.6626811784999999	3.817114724560975	6.399517019329268
O	-2.8090125094999996	4.035137494560975	5.950094159329268
O	6.5755025105	8.810493334560974	-6.243206850670733
O	6.8345568205	8.140448734560975	-1.0128811306707322
O	3.9798265805000006	10.528854494560974	-1.7823734406707321
O	3.4911235305000003	11.729718154560976	1.755965461329268
O	3.4063926205	8.191657814560974	2.796273219329268
O	-0.23256414849999985	7.795857474560975	1.0789529453292679
O	-3.4882271895	9.656839924560975	0.6446463073292679
O	-4.1956691095	8.350252744560976	-2.8215027006707323
O	-1.9163521295	8.695991294560976	-5.782679150670733
O	-2.6648949294999995	5.179911334560975	-6.935090550670733
O	-1.0655756214999998	3.8554540145609746	-3.6676720806707324
O	2.0383719505	5.979095724560975	-4.162524140670731
O	2.3457639205000005	4.702827204560975	-7.620874330670732
O	2.2017815005	1.138190854560975	-6.347652120670732
O	4.8360279004999995	1.9022864575609748	-3.7278060506707322
O	7.0079162505	3.3565961045609747	-6.384491970670732
O	7.5720018005	-1.7424939054390252	-5.413026670670732
O	10.7839101905	0.29375766456097496	-5.052422390670731
O	-8.7368003095	-4.082129005439025	4.976974959329268
O	-8.0572176195	-1.0589662554390253	2.891171009329268
O	-8.8701673095	-2.9234620654390255	-0.40230997067073204
O	-7.0155030595	-6.040547165439024	0.6801701993292678
O	-3.9656983894999995	-4.199419055439025	1.629851065329268
O	-3.9865131894999997	-2.238632915439025	-1.780139210670732
O	-4.2224056695	-5.485845385439025	-3.5638338206707325
O	-1.2370089064999998	-6.8859973654390245	-1.6127206506707323
O	0.8232402505000002	-3.7276755054390254	-2.174697370670732
O	0.18833725550000013	-4.233880505439025	-6.035805800670731
O	1.0091431805000002	-7.9499738554390245	-5.899023510670732
O	4.2297299105	-7.542597735439026	-3.9850676906707325
O	-6.2781226695	-8.830189955439025	12.124892069329267
O	-6.6633555795	-5.737028795439025	9.861734999329267
O	-4.0065264595	-3.315344385439025	10.904057179329268
O	-4.1183949295	-2.039001465439025	7.290467019329268
O	-3.2465429694999997	-5.2666872654390255	5.966757669329267
O	-0.4670562469999998	-5.649928805439025	8.522790429329268
O	0.9850506905000002	-2.3320092854390255	7.431984879329267
O	1.1378410005000004	-3.455856885439025	3.8723879693292678
O	2.6697516405000004	-6.5889760754390245	4.685448439329267
O	5.990476560499999	-2.134060425439025	3.988554549329268
O	6.3278503705	-4.847529265439025	1.3047212348292678
