15

O	1.9939478635787964	-2.2026822566986084	-0.46337810158729553
O	2.9908206462860107	-1.3633393049240112	0.04617949575185776
O	0.712618887424469	-1.8072470426559448	-0.6697204113006592
O	1.3390341997146606	0.33351749181747437	0.14140132069587708
O	2.6350317001342773	-0.06888172030448914	0.3493644893169403
O	0.3556233048439026	-0.5112327337265015	-0.36636966466903687
O	-1.2759439945220947	1.328246831893921	-0.2223607301712036
O	-1.9702379703521729	-0.8865433931350708	-1.073885202407837
O	-2.7354819774627686	1.5248740911483765	-0.6577082872390747
O	-3.2002224922180176	-0.7679762840270996	-0.23375901579856873
O	-3.093019962310791	0.7983613014221191	1.5262761116027832
O	3.646378993988037	0.8729175329208374	0.8937889933586121
O	-0.9500583410263062	-0.026490338146686554	-0.5517701506614685
O	-3.518270492553711	0.5956401824951172	0.13734427094459534
O	3.069779872894287	2.180835723876953	1.1445969343185425
