24

O	-3.1262261867523193	0.24865004420280457	-0.37943172454833984
O	-0.7882194519042969	-0.09249410033226013	-0.7904359102249146
O	0.8802323341369629	1.1153504848480225	0.5037363767623901
O	-0.09570498019456863	-1.6351675987243652	-2.4890854358673096
O	-3.4270408153533936	-0.6699618697166443	-1.3793792724609375
O	0.6327129006385803	0.16425661742687225	-0.5326183438301086
O	4.6236796379089355	-0.48574361205101013	0.9502317905426025
O	2.0619709491729736	1.8936429023742676	0.11184215545654297
O	-1.8112698793411255	0.5378671288490295	-0.08435922116041183
O	-2.445730686187744	-1.3041735887527466	-2.088992118835449
O	-1.1188957691192627	-0.9986008405685425	-1.7762196063995361
O	3.1857221126556396	1.041773796081543	-0.3386196494102478
O	3.363208293914795	-0.24346385896205902	0.35215649008750916
O	4.894642353057861	0.2361088991165161	2.149956226348877
O	4.198413372039795	-0.5058620572090149	3.2941486835479736
O	5.722020149230957	-0.616818904876709	0.05672816187143326
O	5.6562652587890625	0.26422393321990967	-1.148985505104065
O	2.210049867630005	-0.7414056658744812	1.1411904096603394
O	1.3184120655059814	0.3534925580024719	1.686065912246704
O	-4.214526176452637	0.8705102801322937	0.3183753788471222
O	-5.127103805541992	1.380346655845642	0.9182562232017517
O	-6.243464946746826	1.981451153755188	1.636040210723877
O	-7.418346405029297	1.2677377462387085	1.4882628917694092
O	-2.930800199508667	-2.691681385040283	-3.5988638401031494
