60

O	-1.3938527379099999	-2.0043690836633337	0.6715995460096666
O	-1.6176256959099997	-0.6139133329633335	0.2602598970096667
O	-1.4340782389099997	0.4267811663366664	0.8288350115096668
O	-1.5691886459099997	0.6083542863366665	2.292520250009667
O	-2.34544819391	-0.5560298906633335	2.5785365900096666
O	-3.65136320391	-0.5570104066633335	2.9232512400096664
O	-2.51869018391	-3.8382033236633335	1.5615751560096667
O	-2.98150506391	-5.9906970236633335	2.177468190009667
O	-3.6782818839099996	-4.448546063663334	-0.3968030599903333
O	-0.7426316179099999	-2.7806399836633333	-0.16629750999033333
O	-3.3942932939099997	-4.6405301836633335	2.4050101200096665
O	-0.4321408969099998	-8.320717543663333	1.0799444390096666
O	-3.06049806391	-6.666229193663334	0.9929437982096667
O	-1.76039323491	-2.7478595536633335	1.7900171800096667
O	-1.4667864159099997	-3.9063866936633334	-0.6081761699903333
O	-2.52203078391	-4.204702383663333	0.2637722870096667
O	-2.07538677391	-7.134403683663334	0.047793661009666755
O	-0.6597186649099998	-7.027480633663333	0.4658193390096667
O	-1.4219920189099997	-8.415782913663334	2.1573085500096667
O	-2.43709065391	-9.492796123663334	1.9234152100096669
O	-0.8376409419099998	-9.282140023663333	0.09772133100966673
O	0.38109598609000017	-9.554186483663333	-0.7784671799903332
O	-0.5860527099099998	-6.081902773663334	1.6006691660096668
O	-1.6454320199099999	-6.104065383663333	2.6104499200096667
O	-1.4752699309099997	-3.103659063663333	-2.5176693199903335
O	-4.16403597391	0.6777655163366666	3.0637159800096665
O	-5.11050988391	0.9765076163366665	4.038741120009667
O	-5.75961351391	-0.08384397666333354	4.609666650009667
O	-5.37085373391	-1.3215109566633334	4.226716060009667
O	-4.51281323391	-1.5792260976633337	3.1592288600096667
O	5.90654014609	-2.972083223663333	6.264817610009667
O	7.97253256609	-3.9370176936633334	3.3207681600096666
O	7.1400040660899995	-0.6926061837633335	1.5612179870096667
O	8.443154006090001	-0.27622024566333353	-1.9773810599903334
O	2.88048823609	1.3734822663366666	-3.8112374999903333
O	3.74467307609	-2.1086590436633337	-2.7260920599903335
O	3.7683601260900006	-3.6699023636633332	0.8973385508196667
O	4.32983525609	-7.003672083663333	2.6208054400096668
O	2.23215501609	-5.946050303663333	5.686169560009667
O	-0.5516355749099998	-3.5002803336633335	6.322574670009667
O	0.3351706560900002	-0.14971017866333347	7.756270830009667
O	-1.7240380849099999	1.5785760863366667	10.472459840009666
O	-4.71203602391	3.8518678063366663	9.582560450009666
O	-0.4433342199099998	6.257150776336666	7.277507100009667
O	-2.3426265539099997	5.4657997963366665	2.207539340009667
O	-5.2943648339100005	3.556510066336666	0.8637953089096667
O	-5.64431100391	-0.2584794566633335	0.05309149300966676
O	-5.77598162391	-1.3105760326633336	-3.427768429990333
O	-8.97424239391	-1.0949305146633335	-5.495867509990333
O	-10.93434178391	-4.331259413663334	-5.379654679990333
O	-9.228794823909999	-6.700940603663334	-7.778429409990333
O	-5.81048376391	-5.037402543663333	-7.589524449990333
O	-2.53259568391	-6.007128043663333	-5.821412209990333
O	-1.00112737361	-2.5053260536633335	-5.383498469990333
O	-2.13586920391	1.0777480963366664	-4.978706539990333
O	-1.2814986079099997	3.623518726336666	-7.6802451099903335
O	-0.6663994649099998	7.372031106336667	-7.190160749990333
O	8.59445288609	8.805219006336667	-1.6302689399903332
O	8.093963126090001	8.333997316336667	2.078466830009667
O	5.61235185609	6.206343266336667	3.9048639500096667
