30

O	91.74103997758492	95.19596184359318	-43.41190965821971
O	91.4998495403928	93.8264812749067	-42.943943865427734
O	92.01308590297148	92.78119866315478	-43.23374563969638
O	92.54318042474576	92.4612867118475	-44.57920252818621
O	91.85630162752473	93.46985955081844	-45.321599383429046
O	90.83505226051666	93.24845660731985	-46.17732926585418
O	90.936973678111	96.76260230746337	-44.93486038924485
O	90.57613066294982	98.76420320029501	-45.97895672351853
O	88.9902772826849	97.35369078809586	-43.74599371884756
O	91.88546943394381	96.12685448906227	-42.49466598911003
O	90.43798013133096	97.3535826521142	-46.16917777449269
O	92.15581907775992	101.52952283979104	-44.249678415337286
O	89.9261668158383	99.51604151068148	-45.041957367058615
O	91.82301746067607	95.78182564415287	-44.672080804700926
O	90.93418561344889	97.16522103036769	-42.556444589512125
O	90.33631293996281	97.23049133531856	-43.821796355761656
O	90.35383205263317	100.20175118265894	-43.84619606996995
O	91.81388661428299	100.27203527133094	-43.6146900769301
O	91.7254887484472	101.38723722060931	-45.64399785729326
O	90.60827145362545	102.31719971383832	-46.007431572196175
O	91.27254986983543	102.4979049076538	-43.67037074025623
O	91.95877973189191	103.01932795914875	-42.411704040661206
O	92.46425176112079	99.2573905784828	-44.471982101355806
O	91.9495740258172	99.03852247719244	-45.82462265150474
O	90.1797339793928	96.5306537302609	-40.7347050962271
O	90.55832352962793	91.94391283118014	-46.34709981082326
O	90.1614770899904	91.42844049972256	-47.57695139012209
O	89.72208327627227	92.329835361328	-48.507573420809166
O	89.78257441939594	93.638862971493	-48.17232364565844
O	90.06422058448013	94.10841354980587	-46.89077099055442
