30

O	91.577	93.452	-45.295
O	91.753	92.345	-46.188
O	91.895	91.453	-46.972
O	92.144	90.348	-47.919
O	90.926	89.933	-48.543
O	90.368	90.733	-49.51
O	90.906	95.761	-44.955
O	90.832	98.245	-44.817
O	91.079	96.761	-42.768
O	91.922	93.336	-43.945
O	90.353	97.031	-45.532
O	92.058	102.35	-44.252
O	89.798	99.34	-44.863
O	91.074	94.664	-45.805
O	91.743	94.453	-43.121
O	91.239	95.68	-43.577
O	90.335	100.507	-44.057
O	91.57	100.997	-44.802
O	93.071	102.171	-43.114
O	93.777	103.497	-42.902
O	90.958	103.297	-43.789
O	90.154	103.902	-44.931
O	92.674	99.933	-44.679
O	92.156	98.685	-45.369
O	92.25	94.273	-41.069
O	89.107	90.313	-49.944
O	88.42	91.03	-50.927
O	88.992	92.173	-51.482
O	90.254	92.596	-51.058
O	90.938	91.877	-50.07
