30

O	-1.262459397315979	0.548173189163208	0.3438178300857544
O	-2.4007678031921387	-0.07314915210008621	0.9625948667526245
O	-3.3592653274536133	-0.5971035957336426	1.4783083200454712
O	-4.510174751281738	-1.2502399682998657	2.119175672531128
O	-5.693157196044922	-0.5004604458808899	1.9524760246276855
O	-6.1474409103393555	-0.2448512464761734	0.6762210726737976
O	1.0393468141555786	0.516373336315155	-0.3409411311149597
O	2.1610538959503174	-1.5562468767166138	0.23000839352607727
O	2.0781874656677246	2.320833921432495	-1.4498231410980225
O	-1.3316909074783325	1.8295140266418457	-0.19864757359027863
O	2.3093490600585938	-0.25503912568092346	-0.387230783700943
O	6.060072422027588	-0.7406579256057739	-0.23890534043312073
O	2.927459239959717	-1.522655725479126	1.4750211238861084
O	-0.04903554171323776	-0.08633285760879517	0.2544976770877838
O	-0.2511512339115143	2.4400906562805176	-0.7951663136482239
O	0.9438046216964722	1.7797669172286987	-0.867527425289154
O	4.175663471221924	-0.7239920496940613	1.225562334060669
O	4.619293689727783	-0.8955264091491699	-0.20255303382873535
O	6.332857608795166	0.6194577813148499	-0.6797612905502319
O	6.200697898864746	1.6088039875030518	0.448386549949646
O	6.6083478927612305	-0.888644814491272	1.0856105089187622
O	6.063405990600586	-2.061466693878174	1.837773323059082
O	4.289203643798828	-2.287569284439087	-0.7174561023712158
O	2.788539171218872	-2.5158987045288086	-0.6713677644729614
O	-0.3527424931526184	4.377001762390137	-1.6160974502563477
O	-5.441956520080566	-0.7233470678329468	-0.4006229341030121
O	-5.833163738250732	-0.5087927579879761	-1.7083805799484253
O	-6.976596832275391	0.213874951004982	-1.9461361169815063
O	-7.696990013122559	0.7012873291969299	-0.8913652896881104
O	-7.290689468383789	0.47679662704467773	0.4046088457107544
