62

O	-4.5427317479375	1.0348594093749999	0.5859999172625001
O	-2.3129843579375002	0.46867010937499987	1.5839026432625
O	-2.3863708979375002	3.273666429375	3.1086862572625
O	-0.5946623339375003	2.256766719375	4.1754376572625
O	-0.5452104059375004	3.0928235593749998	6.4893941372625
O	1.1453079820624996	1.7036837783749998	2.7413175392625
O	-1.6806704379375004	3.122812439375	1.9184205718625
O	0.09223536106249969	2.2839922593749997	5.4651683372625
O	2.9001578620624997	2.678190291375	8.7724319072625
O	-0.6913028349375003	2.376313114375	7.7380398572625
O	-1.9268906979375005	2.5524857013749997	4.1717134272625
O	-3.8284857979375	2.791967861375	2.8677820622625
O	-0.36529523633750033	2.8276344653749996	1.8117443082625
O	-4.0664846679375	1.5792335873749999	2.6947811352625
O	-3.0832885679375	0.41718918937499994	2.7707887472625004
O	-3.2189067679375003	0.7114651293749998	0.45674304726250003
O	-0.17467965093750032	1.9907623961749998	2.9231182062625
O	-2.8150856779375	0.010951269375000017	-0.6194731027375
O	0.5652261090624997	2.400254096375	8.5248208972625
O	-3.8002528679375	-0.834743750625	-1.1176201627375
O	1.8543637620624998	2.4823668953749998	7.8012969672625
O	4.4742276920625	4.352506949375	9.3370821072625
O	2.4699577920625	1.9454807233749998	9.974839777262499
O	1.4985468920624996	2.7494013263749997	10.7946343272625
O	1.8264444020624995	3.6893219193749998	6.9258380372625
O	0.40723928206249965	4.119898249375	6.8015248272625
O	-5.1581287179375	-0.6181656206250001	-0.8388215327374997
O	-5.5951853479375	0.44546890937499994	-0.11311469273749974
O	0.006597299062499673	2.189248723375	-0.2325208727375001
O	2.9783495820624997	4.069316719374999	9.2302523872625
O	0.5039644660624998	-7.044834680625001	4.9237339972625005
O	4.1811078020625	-7.203897040625001	4.1321642972625
O	3.6267379920625	-6.126089440625001	0.5298703672625
O	6.7248272120624994	-5.471587880625	-1.6102859527374997
O	4.2141410420625	-0.03389083062500031	-3.2196283627374997
O	5.3599129820625	-0.8064114206250004	0.2289850172625001
O	3.4008178820625	-2.4288131706250002	3.2268638872625
O	4.0735859120625	-3.2494520906249997	6.9008800472625005
O	0.3426998920624997	-2.9017408006250003	7.7042206972625005
O	-2.8331923579375	-1.485719240625	6.1344000272625
O	-4.7765374979375	-3.885033210625	3.8636649972625
O	-8.5896639979375	-3.6446970006250003	3.8103064872625003
O	-10.3092387579375	-0.885906360625	1.8632223522625
O	-7.9186641779375	-4.277236540625	-1.9129203127375
O	-4.783962247937501	0.4107814393749998	-3.2568843627375
O	-4.4329073979375	3.740034149375	-1.5826905727375
O	-2.8154397479375	5.538337859375	0.9972299572625001
O	0.41810341506249965	7.466687759375	0.5322916672625
O	0.053274970062499705	11.184496339374999	-0.27007197273750005
O	0.15407638406249974	13.055176489375	3.0452148272625
O	3.7980142820625	13.235102689375001	3.9778771072625
O	4.8903774020625	10.128017439375	2.0846320198625
O	6.0128757920625	6.7029677593749994	3.1959456372625
O	4.7120134420625	4.561794539375	0.4044822572625
O	2.3914808220625	4.776940589375	-2.6455141527375003
O	3.6852682820625002	5.191622959375	-6.2497139227375005
O	1.8758833020624996	3.8150736893749997	-9.3261726027375
O	2.4318385320625	-7.1113549506250004	-9.471769902737499
O	-0.20367214093750033	-8.649001410625	-7.2577422227375
O	-1.9847877679375003	-7.267472210625001	-4.2252924927375
O	-5.5377920479375	-8.706824410625	-4.3131445827375
O	-8.6651436679375	-8.627071010624999	-2.2141542327375
