19

O	5.985029697418213	-1.2223811149597168	0.6956374049186707
O	4.660462856292725	-1.1962605714797974	0.03318837657570839
O	4.101086616516113	-2.2060394287109375	-0.6615282893180847
O	2.9170162677764893	-1.8316028118133545	-1.1109886169433594
O	2.672936201095581	-0.608363151550293	-0.7377657890319824
O	1.472959041595459	0.21247899532318115	-1.0138503313064575
O	0.4211307764053345	0.0585804209113121	0.037383221089839935
O	-0.7643919587135315	0.7905604839324951	-0.11831522732973099
O	-1.8207604885101318	0.5698715448379517	1.035295844078064
O	-2.9374630451202393	-0.2522868812084198	0.22806315124034882
O	-4.02634859085083	-0.5889825224876404	1.0422961711883545
O	-5.190108776092529	-1.330846905708313	0.5969488024711609
O	-2.874887704849243	-0.5519779920578003	-0.9174501299858093
O	-2.486895799636841	2.0882511138916016	0.8614084124565125
O	-2.790543556213379	1.8963385820388794	-0.764986515045166
O	-1.1667776107788086	1.637805700302124	-1.0601259469985962
O	0.6899408102035522	-0.7200974822044373	0.9798460602760315
O	3.772502899169922	-0.16754387319087982	0.00015835999511182308
O	-2.634888172149658	3.4224958419799805	-1.0400092601776123
