15

O	1.8370088338851929	-2.083184003829956	0.36508485674858093
O	0.887070894241333	-1.2247295379638672	-0.4673732817173004
O	-0.5121923685073853	-1.8935047388076782	0.3456558287143707
O	-0.7709996104240417	-2.863218069076538	-0.8190647959709167
O	-1.50152587890625	-0.7304924726486206	-0.3441007137298584
O	-1.4095778465270996	0.2940259575843811	0.7733005881309509
O	-2.259535551071167	1.477281093597412	0.5010369420051575
O	-2.057147264480591	2.3085339069366455	-0.5923250913619995
O	-3.1932215690612793	1.7214243412017822	1.300469160079956
O	-1.8837664127349854	-0.32955044507980347	1.9565366506576538
O	-0.009696366265416145	0.6249762773513794	0.9847145676612854
O	1.001466989517212	0.04450784996151924	0.5063928961753845
O	2.3948593139648438	0.4929872751235962	0.802604615688324
O	3.0909206867218018	0.8713345527648926	-0.48807355761528015
O	4.386336326599121	1.2896077632904053	-0.225467711687088
