69

O	-2.4414628227053576	-1.6386680761785715	0.38702505190178565
O	-2.9049821677053576	-0.9553027761785715	1.5493217670017858
O	-2.2468691147053574	0.1085330468214285	2.0190499070017855
O	-2.9529894847053573	1.0700837468214286	2.659969407001786
O	-4.096933071705357	0.7465224558214285	3.1742272670017857
O	-4.816691521705358	0.0899718458214285	2.2153977070017854
O	-4.248044981705357	-1.0496293761785715	1.7897030070017856
O	-5.074487441705357	-2.088912366178571	1.5277959670017858
O	-6.363504651705357	-1.8596507461785714	1.3013151540017855
O	-7.051169411705358	-0.7013800851785715	1.4858463770017858
O	-6.135271111705357	0.2825430413214285	1.8930120670017858
O	-7.0204908417053575	-2.7586666261785715	0.34759482776178563
O	-2.1041462047053576	2.168807273821429	3.0790594070017856
O	0.8754997682946424	7.414087083821428	-4.443880452998215
O	-3.9515378417053575	-7.570601506178572	-6.154995332998214
O	-0.2894383517053576	-7.560442676178572	-7.010159482998215
O	-0.5765975717053575	-11.19534833617857	0.5060342560017856
O	-5.508542571705357	-10.561194936178572	2.8561681470017857
O	-6.0819644917053575	-10.49547793617857	-0.9275899329982142
O	-2.9947129117053573	-7.792711346178572	7.676529347001785
O	-2.5635550057053575	-5.577180816178572	10.739229667001785
O	0.16631412829464254	-11.51794763617857	5.634407327001785
O	1.7087031382946425	-13.96135563617857	3.1832130170017856
O	7.144739448294642	-0.28288088617857154	-4.299151872998214
O	5.164444908294643	-1.0713954861785715	-7.435805232998215
O	1.6152090182946426	-1.6710360161785716	-8.570217392998215
O	-1.5439691757053575	-0.6863559781785715	-10.435603132998216
O	-3.1906309917053575	0.5556409238214285	-7.2263403029982145
O	-4.865379361705357	3.8392447638214287	-6.287709362998215
O	-3.0469317417053574	7.156995563821428	-6.393160752998215
O	-5.003436551705358	8.232755253821429	-3.296114392998214
O	-7.292986321705357	6.757146023821428	-0.7325891229982142
O	-10.456172171705358	7.192569913821428	-2.826906612998214
O	-9.406981491705357	6.596437793821428	-6.413215382998215
O	-9.320293121705358	3.704079633821429	-8.886380872998215
O	-7.078376791705358	1.0942284218214284	-10.478939432998216
O	7.922692478294643	4.729385813821429	-6.244545672998215
O	7.680211938294642	2.4281657838214286	12.667447667001785
O	1.6095778082946424	3.0888245238214287	14.977994367001786
O	8.082894838294642	5.705250483821429	3.878447427001786
O	9.060995038294642	9.352655813821428	4.025379627001786
O	3.901538108294643	11.67039406382143	-0.3957632879982143
O	4.996710948294643	8.247693583821428	-1.691608592998214
O	3.4622807982946426	4.938893053821428	-0.6049220279982144
O	1.5003699382946423	1.9044452838214285	-1.6377757229982144
O	-2.3403834737053577	2.227474443821429	-1.6224092529982144
O	-5.4981842017053575	0.3548003138214285	-2.5712788929982144
O	-4.871961851705358	-2.3201665761785715	-5.160364482998215
O	-1.1072851167053575	-2.5081542661785714	-4.582218752998215
O	-1.6024117457053575	-5.314522256178572	-1.9521451429982144
O	0.39553152829464255	-8.43324479617857	-2.4625943729982143
O	2.9006401182946426	-6.714233826178572	-4.740121882998214
O	6.611424138294643	-6.436962526178572	-4.044308652998215
O	5.048260608294643	-7.724733236178571	0.4329756487017856
O	2.686240858294643	-4.749216546178571	0.38345842420178566
O	0.3742046182946426	-5.3425368661785715	3.3362272770017856
O	-1.1758233517053576	-2.2763912661785715	5.110363897001785
O	-1.0205748207053575	1.3371881438214286	6.2698175970017855
O	-3.1402834117053575	4.113341293821429	7.934674917001785
O	-4.235968741705357	6.065762843821428	4.778865167001785
O	-1.8835981082053574	6.198605073821429	1.7911319170017856
O	1.3248775282946423	8.25290100382143	1.8645091970017857
O	0.2845057282946424	10.250995263821428	4.903445337001785
O	2.523826868294643	6.873300473821428	8.614906847001786
O	5.048764918294642	4.501067323821428	6.983018217001785
O	3.6726315382946426	1.7562746438214285	4.7635463270017855
O	3.803594538294643	-1.6610319161785716	6.4116003470017855
O	4.9949714982946425	-4.706707786178572	4.545871837001785
O	5.486324498294643	-8.40877354617857	5.259552007001785
