38

O	-26.423	-55.516	-9.75
O	-25.514	-56.271	-10.054
O	-27.3	-55.838	-8.592
O	-28.501	-55.125	-8.403
O	-29.355	-55.412	-7.366
O	-29.042	-56.438	-6.465
O	-27.842	-57.181	-6.655
O	-26.978	-56.882	-7.72
O	-27.527	-58.277	-5.722
O	-28.429	-58.577	-4.728
O	-29.626	-57.821	-4.594
O	-30.423	-58.099	-3.699
O	-29.897	-56.777	-5.424
O	-26.36	-58.959	-5.874
O	-26.694	-54.424	-10.5
O	-25.941	-54.063	-11.701
O	-25.115	-52.828	-11.522
O	-25.282	-52.128	-10.547
O	-27.0	-53.664	-12.742
O	-27.918	-54.784	-13.197
O	-29.291	-54.645	-13.022
O	-27.402	-55.922	-13.829
O	-30.15	-55.658	-13.442
O	-28.257	-56.938	-14.257
O	-29.631	-56.796	-14.06
O	-19.73	-50.795	-11.761
O	-19.273	-52.135	-11.692
O	-20.17	-53.159	-11.855
O	-21.523	-52.88	-12.096
O	-21.983	-51.586	-12.184
O	-21.103	-50.506	-12.01
O	-18.883	-49.783	-11.602
O	-19.274	-48.525	-11.658
O	-20.613	-48.152	-11.91
O	-18.293	-47.562	-11.467
O	-21.544	-49.146	-12.082
O	-23.434	-51.282	-12.419
O	-24.246	-52.493	-12.502
