38

O	2.215986490249634	-0.946704089641571	-0.30994319915771484
O	1.608708143234253	-1.706062912940979	0.529617428779602
O	3.566192388534546	-0.5267060399055481	0.05632694438099861
O	3.9005253314971924	-0.5720914602279663	1.3815633058547974
O	5.084991931915283	-0.1795896589756012	1.9154280424118042
O	6.044906139373779	0.3134230077266693	1.0382814407348633
O	5.747255802154541	0.3729451596736908	-0.30599817633628845
O	4.5244622230529785	-0.04149097949266434	-0.7975184321403503
O	6.730944633483887	0.8711972236633301	-1.1305835247039795
O	7.962256908416748	1.285717487335205	-0.6489617228507996
O	8.242013931274414	1.210041880607605	0.7290189266204834
O	9.36229133605957	1.5911227464675903	1.166895866394043
O	7.273317337036133	0.730190634727478	1.502874493598938
O	6.404945373535156	0.9298585653305054	-2.4740171432495117
O	1.537894606590271	-0.5779260396957397	-1.4387192726135254
O	0.09630637615919113	-0.9742901921272278	-1.7718340158462524
O	-0.5624370574951172	0.017047975212335587	-0.7295857667922974
O	-0.12001070380210876	0.14219191670417786	0.39867034554481506
O	0.04208775609731674	-2.2517192363739014	-0.7300509810447693
O	-1.219842553138733	-2.9415385723114014	-0.7266270518302917
O	-2.3881783485412598	-2.5421111583709717	-0.05300337076187134
O	-1.294853687286377	-4.162904262542725	-1.3101937770843506
O	-3.4976933002471924	-3.3995134830474854	-0.03739074617624283
O	-2.3788888454437256	-5.0244574546813965	-1.297386884689331
O	-3.540515661239624	-4.635105609893799	-0.6318620443344116
O	-5.904433727264404	2.404576539993286	-0.39053377509117126
O	-5.883342266082764	3.5444893836975098	-1.151353120803833
O	-4.668127536773682	4.0261616706848145	-1.5652860403060913
O	-3.4499690532684326	3.425417900085449	-1.2610028982162476
O	-3.4883153438568115	2.296767473220825	-0.5002444982528687
O	-4.728798866271973	1.7975869178771973	-0.06937998533248901
O	-7.090330123901367	1.8349789381027222	-0.043590523302555084
O	-7.106025218963623	0.6580604910850525	0.6191495060920715
O	-5.938680171966553	0.023926835507154465	0.9539794921875
O	-8.344757080078125	0.031141147017478943	0.9688249826431274
O	-4.752719402313232	0.6045367121696472	0.6060358285903931
O	-2.3052480220794678	1.590328335762024	0.03181144967675209
O	-1.6819185018539429	0.7805021405220032	-1.048315405845642
