39

O	-49.648	-10.019	-23.183
O	-49.549	-9.153	-24.037
O	-48.837	-9.891	-21.937
O	-48.965	-10.723	-20.891
O	-48.104	-10.491	-19.711
O	-46.724	-10.533	-19.831
O	-45.888	-10.321	-18.744
O	-46.433	-10.06	-17.5
O	-47.802	-10.02	-17.355
O	-48.619	-10.232	-18.451
O	-50.005	-10.178	-18.241
O	-50.752	-10.946	-17.402
O	-52.015	-10.606	-17.535
O	-52.043	-9.612	-18.475
O	-50.817	-9.35	-18.909
O	-44.156	-10.384	-18.927
O	-50.457	-11.115	-23.347
O	-51.173	-11.251	-24.616
O	-52.435	-10.413	-24.554
O	-53.268	-10.501	-23.658
O	-51.578	-12.7	-24.835
O	-52.155	-12.972	-26.191
O	-53.222	-13.84	-26.298
O	-51.652	-12.394	-27.341
O	-53.78	-14.127	-27.531
O	-52.201	-12.676	-28.576
O	-53.267	-13.548	-28.673
O	-52.527	-9.574	-25.65
O	-53.533	-8.613	-25.914
O	-53.456	-7.909	-27.093
O	-54.396	-6.953	-27.418
O	-55.437	-6.692	-26.547
O	-55.518	-7.4	-25.368
O	-54.582	-8.362	-25.049
O	-56.405	-5.662	-26.834
O	-56.693	-5.196	-28.082
O	-57.621	-4.234	-28.001
O	-57.884	-4.11	-26.706
O	-57.139	-4.988	-25.973
