39

O	-50.14289169441277	-10.169631859262623	-22.801137589741717
O	-49.4194336966794	-9.547119788379998	-23.61897022715808
O	-49.50506330972379	-10.469439752258785	-21.561115452137713
O	-48.73931661727753	-9.924327120041765	-20.762140357535056
O	-48.01247790411216	-10.23297133627689	-19.58825046670232
O	-46.6403196310987	-10.26148146006874	-19.852155153848415
O	-45.79980782968041	-10.358959651541722	-18.816713370607815
O	-46.300474858985595	-10.154652069573267	-17.56325316031647
O	-47.61244175144331	-9.979540422492974	-17.23623143138309
O	-48.451365775892185	-10.094395327327184	-18.309685532956877
O	-49.826513751474465	-10.039317445888242	-18.08669691931948
O	-50.54244337697942	-10.87862859204552	-17.339868091299564
O	-51.713668240908675	-10.237629460494349	-17.185960924907693
O	-51.751925693642875	-9.245829310330546	-18.075486651793685
O	-50.688119503958106	-9.384929811467654	-18.824751602351395
O	-44.12348169596721	-9.832349846164112	-19.057017631191897
O	-50.99401531040465	-11.12578383949426	-23.35651436361947
O	-51.43905861122541	-10.93631186432568	-24.69108495634904
O	-52.74561155975698	-10.271407216302979	-24.818324542336658
O	-53.04837617962574	-9.86961130825205	-23.682547760986875
O	-51.47517135699986	-12.232396568160485	-25.383030030329053
O	-52.4814271992654	-12.322039167504789	-26.4992754779731
O	-53.239951765262084	-13.45016458751853	-26.437959422399846
O	-52.246878250575655	-11.927404126382498	-27.81515088692894
O	-53.96121833714468	-13.950991440114429	-27.47197945023418
O	-52.6243689770651	-12.717781522430952	-28.900939327453024
O	-53.88935690671215	-13.27039397075087	-28.674603857975793
O	-52.68807713205123	-9.515413339779952	-26.035269674336718
O	-53.68569661316798	-8.562356569317938	-26.19361077087929
O	-53.48955222381598	-7.272630779706317	-26.50729381275339
O	-54.44305120184783	-6.318412923756083	-26.866214314837542
O	-55.74549623624497	-6.753635274201951	-27.11712810099558
O	-55.781060464364344	-8.145629777007226	-26.890010743831834
O	-54.984633943084766	-8.845062686264882	-25.95140849802279
O	-56.8568834821014	-5.938992627450364	-26.45979508459526
O	-58.176272493101024	-6.329035238647837	-26.418970254368173
O	-58.62913138871049	-6.4405718658850795	-25.147205503481693
O	-57.68558636148966	-5.977913527831319	-24.369050241070436
O	-56.95358761614307	-5.246751626127347	-25.284198547110634
