12

O	-3.59753680229187	-0.5559065341949463	-0.4470984637737274
O	-2.653534412384033	0.07456717640161514	0.3322867155075073
O	-2.980903148651123	0.7790952920913696	1.307106852531433
O	-1.2493640184402466	-0.08673450350761414	0.00921308808028698
O	-0.2491779923439026	0.5266423225402832	0.7611430287361145
O	1.092341423034668	0.3885176479816437	0.4739304184913635
O	2.269679546356201	0.878000020980835	1.0454529523849487
O	3.3741953372955322	0.6081845164299011	0.2128661423921585
O	2.8524105548858643	-0.3758971095085144	-0.6894201636314392
O	1.4807759523391724	-0.38196706771850586	-0.5943707823753357
O	0.5047374963760376	-0.9971888661384583	-1.350606083869934
O	-0.8436240553855896	-0.8573129177093506	-1.060503602027893
