23

O	0.07450763881206512	-0.800733208656311	0.7003192901611328
O	-0.7961950898170471	-0.13802288472652435	0.08646629005670547
O	-2.2155988216400146	-0.3513491153717041	0.3112213611602783
O	-3.1773838996887207	0.3636660873889923	-0.3511054217815399
O	-4.5261993408203125	0.11535551398992538	-0.09434397518634796
O	-5.712082386016846	0.6298026442527771	-0.5630505681037903
O	-6.7119317054748535	-0.02147066779434681	0.07003787904977798
O	-6.218014240264893	-0.9171887636184692	0.9110616445541382
O	-4.87653923034668	-0.8530791401863098	0.8290006518363953
O	-3.9134609699249268	-1.5831629037857056	1.5055867433547974
O	-2.597344160079956	-1.305416226387024	1.2214524745941162
O	-0.3007226288318634	0.8323439955711365	-0.8406493067741394
O	1.0879229307174683	1.0350948572158813	-1.0549110174179077
O	2.0916011333465576	0.34467464685440063	-0.4172464907169342
O	1.4531999826431274	1.9974374771118164	-1.971992015838623
O	2.77457594871521	2.280726194381714	-2.2614076137542725
O	3.7285072803497314	1.5714430809020996	-1.605084776878357
O	3.4382364749908447	0.5943836569786072	-0.6752721667289734
O	4.467881202697754	-0.15782450139522552	0.02045731619000435
O	5.793278694152832	-0.032669104635715485	-0.11924866586923599
O	6.405200004577637	-0.9047276377677917	0.6966204047203064
O	5.4528489112854	-1.5798412561416626	1.3510545492172241
O	4.277711868286133	-1.1194429397583008	0.9339569211006165
