23

O	-9.212	55.432	13.803
O	-8.888	55.596	12.616
O	-9.693	56.51	11.742
O	-10.716	57.25	12.348
O	-11.427	58.159	11.583
O	-12.521	59.022	11.941
O	-12.835	59.684	10.807
O	-11.997	59.26	9.773
O	-11.131	58.32	10.238
O	-10.119	57.596	9.618
O	-9.378	56.7	10.377
O	-7.804	54.999	12.103
O	-6.944	54.161	12.824
O	-5.602	54.149	12.458
O	-7.4	53.329	13.861
O	-6.471	52.569	14.568
O	-5.116	52.558	14.243
O	-4.714	53.344	13.177
O	-3.293	53.344	12.809
O	-2.808	53.628	11.588
O	-1.442	53.452	11.662
O	-1.129	53.062	12.922
O	-2.278	53.018	13.63
