23

O	-9.666444467855626	54.35787665972541	12.925886619291573
O	-9.1065466350323	55.49728645741775	12.811951923993217
O	-9.346863346428272	56.11493928765607	11.486536470484447
O	-10.673900221161722	56.42255426602085	11.431445611666671
O	-11.204595871994904	56.94288909480285	10.252839632801845
O	-12.267375106004904	57.69935064793087	9.841530107400285
O	-11.991668157391212	58.01658214851305	8.549145242182878
O	-10.72136702258453	57.780912499974335	8.340224177064506
O	-10.398408168080298	56.730748577351484	9.136111043166466
O	-9.587974652334708	55.63142723479388	9.229117005433906
O	-8.89892320140514	55.26686167848689	10.459691042785975
O	-7.801168616265322	55.4692692228926	13.223935665124117
O	-6.990495099604503	54.26954214341003	13.4678698052289
O	-5.774790867898755	54.33544338412614	12.784997096233385
O	-7.682947320344743	53.08595722164334	13.187197057886188
O	-7.451683696258405	52.21442500681967	12.09234115720085
O	-6.661852687876683	52.953934145964716	11.148684175400378
O	-5.466388150314875	53.30361183223609	11.881197022410944
O	-4.058716344212805	52.894924860859035	11.669572480534843
O	-3.288081903462242	52.564053998772216	12.741087506125487
O	-2.03765953288014	52.72422824535631	12.387974197065056
O	-1.9987169500104724	53.72949050492096	11.569514431939261
O	-3.270470233795546	53.924655430196786	11.211882838711333
