24

O	-0.9865792989730835	0.6446406841278076	-1.6092551946640015
O	-0.8983575105667114	-0.05466075241565704	-0.566969633102417
O	-2.088367223739624	-0.6342341303825378	0.03294418007135391
O	-1.9941511154174805	-1.3987995386123657	1.1720391511917114
O	-3.1307220458984375	-1.9326914548873901	1.7162672281265259
O	-4.361517429351807	-1.710050106048584	1.133156418800354
O	-4.480623722076416	-0.9483778476715088	-0.006903356872498989
O	-5.816709995269775	-0.7076414823532104	-0.6384734511375427
O	-6.339217662811279	0.5052204728126526	-0.024283291772007942
O	-7.753890037536621	0.6810776591300964	-0.3193291425704956
O	-6.105120658874512	0.5082885026931763	1.411095142364502
O	-3.3299169540405273	-0.4134841859340668	-0.5496439337730408
O	0.37282606959342957	-0.2779458165168762	0.025553811341524124
O	1.5119521617889404	0.3125346004962921	-0.6009442806243896
O	2.7343802452087402	0.06487449258565903	0.0171493012458086
O	3.891730308532715	0.5930245518684387	-0.5142537355422974
O	3.7768118381500244	1.3545063734054565	-1.6531840562820435
O	2.566176652908325	1.6027132272720337	-2.269613742828369
O	1.4042333364486694	1.0778405666351318	-1.7439725399017334
O	5.19096040725708	0.3415065407752991	0.12551333010196686
O	5.435070991516113	-0.37944185733795166	1.2319731712341309
O	6.729318618774414	-0.3770693838596344	1.4990581274032593
O	7.29798698425293	0.3469904065132141	0.5579447746276855
O	6.373725891113281	0.8011783957481384	-0.300175279378891
