71

O	4.82513671782	-1.9726445990800001	1.9932438772399996
O	4.187740397820001	-0.9026378520800001	2.1818691372399996
O	4.44296185782	-0.33507058708000015	3.5154477572399996
O	4.02522728782	-1.3191193490800002	4.419587067239999
O	4.491374957820001	-0.9461427520800001	5.719016637239999
O	5.103461027820001	0.7726195829199999	3.8269639772399993
O	5.82693894782	0.8031845059199999	4.989021857239999
O	7.40654569782	1.8667609809199999	5.218833527239999
O	5.655868857820001	-0.22860378008000012	5.90484262724
O	3.0093308478200003	-1.02579821008	1.4713832922399996
O	2.33617479782	-2.3192610790800003	1.2431956882399997
O	2.9363656578200006	-3.41232068908	1.9249291672399997
O	2.4101251278199998	-3.9489803290800003	3.13184325724
O	1.4878056078200002	-2.9598543690800003	3.6709061472399993
O	0.5105263418200001	-2.94581329908	2.5806298972399997
O	1.01947786782	-2.14817731908	1.5505156152399997
O	-0.9302524271799999	-3.2320164090800003	2.4456970772399997
O	-1.7282794721799999	-2.13286761908	2.3620197672399996
O	-2.9539173321799996	-2.3928113090800003	1.9049803872399997
O	-2.7698803621799994	-3.5300833490800003	1.3317387642399998
O	-1.81014777218	-4.12471314908	2.1054253972399994
O	-1.5313321221799998	9.58745704092	2.16038970724
O	-3.1944129521799995	7.40484336092	-0.5420095327600003
O	-0.9291821141799999	4.41947318092	-0.20098945576000027
O	-2.1311860321799996	1.48188080092	-2.39751919276
O	-5.43470767218	3.15851903092	-3.1846484227600005
O	-3.3176801321799996	4.95884370092	-5.75068338276
O	-3.0470333521799997	1.64491844092	-7.624436952760001
O	-6.47923844218	2.38940453092	-9.053295092759999
O	11.14415742782	-7.13810750908	-7.09079132276
O	10.34687852782	-4.88925263908	-4.155372742760001
O	8.758585697820001	-5.60230266908	-0.7390637227600003
O	5.44025809782	-7.30301911908	-1.5821122227600004
O	5.28117174782	-9.32397425908	-4.77971840276
O	2.77769647782	-12.152748209079999	-4.31377758276
O	2.18790889782	-12.403988909079999	-8.09880705276
O	-1.7466141921799998	-4.53338413908	-8.46544354276
O	-5.49839834218	-4.1723248690800006	-8.00876256276
O	-6.55316896218	-7.53140722908	-6.686667772760001
O	-3.47892144218	-8.654795269080001	-4.705040272760001
O	-1.95159569218	-5.25382175908	-4.00101598276
O	1.3429784578200001	-6.36836187908	-5.62267839276
O	3.9254682678200004	-3.5550758190800003	-5.33498508276
O	6.143250027820001	-4.75225380908	-8.20209194276
O	7.112482717820001	8.23058523092	-5.739872922760001
O	7.2808795678200005	4.56841847092	-6.7138953927600005
O	6.70954540782	1.54931677092	-4.423954812760001
O	7.37639251782	0.9767057109199999	-1.62382916276
O	8.29316822782	4.53455813092	-0.5456327527600002
O	5.02282893782	6.1491687509199995	-1.6435562227600002
O	3.6083111078200005	4.44081976092	1.6134889142399997
O	5.718551377820001	6.59681699092	4.05638200724
O	2.58388458782	8.332351040919999	5.0908803772399995
O	-9.052517182179999	-10.24359840908	-2.7315947127600007
O	-7.96909265218	-7.81290031908	0.035888045239999666
O	-7.347465232179999	-1.05498518008	0.008079166239999713
O	-4.156349522179999	0.6392891699199998	1.1030823842399997
O	-1.9103038821799998	1.1631291209199999	4.10061843724
O	1.4737589878200001	2.24958737092	5.173420287239999
O	3.4824448978199998	3.52716481092	7.97886890724
O	1.7994287478200002	5.58040122092	10.69795650724
O	-0.8701282111799998	2.88139589092	10.950693107240001
O	-2.3234363721799998	4.3024687009199996	7.778871177239999
O	-5.38256299218	2.30752014092	6.76617553724
O	-7.37659756218	3.12769913092	3.63939618724
O	-7.275525592179999	6.87146219092	8.27004770724
O	-3.86432851218	7.63274788092	9.70327890724
O	5.124787787820001	5.26908647092	12.798443607240001
O	-3.5557503521799996	-1.0961340890800002	11.01652760724
O	-7.197556972179999	-0.3078777530800001	11.87313210724
O	-9.35973201218	-1.82571920908	9.14662592724
