21

O	0.4162370562553406	1.2213760614395142	0.0753067210316658
O	1.3473750352859497	0.41317564249038696	-0.16792863607406616
O	2.726428508758545	0.8817168474197388	-0.1872205138206482
O	3.0074336528778076	2.2069342136383057	0.06031810864806175
O	4.3272881507873535	2.6711790561676025	0.04504380747675896
O	3.746131420135498	-0.019631365314126015	-0.4566901922225952
O	5.059000492095947	0.41491344571113586	-0.47745582461357117
O	6.498645782470703	-0.7792825698852539	-0.8418741226196289
O	5.3134870529174805	1.7403947114944458	-0.2276495397090912
O	1.0002479553222656	-0.941904604434967	-0.41633692383766174
O	-0.3480195999145508	-1.3948259353637695	-0.39643025398254395
O	-0.5879045724868774	-2.7295124530792236	-0.649749755859375
O	-1.8991713523864746	-3.16219162940979	-0.6288132667541504
O	-2.9594547748565674	-2.2931904792785645	-0.36224570870399475
O	-2.711916208267212	-0.9609651565551758	-0.11007030308246613
O	-1.4058743715286255	-0.5384604930877686	-0.13265588879585266
O	-3.8278703689575195	-0.05189574509859085	0.16936364769935608
O	-5.110980987548828	-0.3789821267127991	0.20961833000183105
O	-5.826155662536621	0.7019256353378296	0.4907500147819519
O	-4.995528221130371	1.7342191934585571	0.6327377557754517
O	-3.7693984508514404	1.265007734298706	0.43417200446128845
