92

O	-2.9406775205984372	0.3814608910312507	4.759648380523438
O	-1.767871265598437	0.4594742680312507	4.266067990523438
O	-1.294480043598437	-0.5819520649687493	3.2605475305234375
O	0.114717709401563	-0.6409871349687493	3.3393506905234376
O	0.480941469401563	0.0007198750312507052	4.566570660523437
O	-0.665652722598437	0.5973057600312507	5.195513650523438
O	1.663434489401563	0.4963711020312507	4.807306370523437
O	-0.677688458598437	1.4983402290312506	6.353002070523438
O	-1.914857924598437	-1.9043714949687494	3.4331331505234375
O	-1.764040610598437	-3.181719414968749	3.2109600505234375
O	-1.630276921598437	-3.8189476249687497	4.5394067705234376
O	-1.639220560898437	-3.0324895449687497	5.7039451205234375
O	-2.779276440598437	-2.2460235149687495	5.475805220523438
O	-3.077776460598437	-1.7668768749687493	4.091087670523438
O	-2.013385905598437	-0.2940855049687494	2.0271571105234374
O	-2.4810543345984373	-1.3152600349687495	1.1476094105234376
O	-3.359968350598437	-0.8275509149687492	0.18831223952343756
O	-2.896693430598437	0.4085788890312507	-0.3068271554765624
O	-1.791624195598437	1.0315219763312506	0.18093656402343758
O	-1.499162432598437	0.8750347880312507	1.5428440005234374
O	-2.583372893598437	4.50014947503125	0.9737209165234376
O	-0.985255396598437	3.2322155050312507	0.22191675052343757
O	-2.006458552598437	2.449801745031251	-0.1628007364765624
O	-3.303173360598437	2.8916799650312504	-0.4835644574765624
O	-3.708410220598437	3.776068825031251	0.44575067552343756
O	-1.355176501598437	4.528147275031251	0.22944806552343758
O	-1.007921237598437	5.542318915031251	-0.6839810594765624
O	0.2464123794015629	5.772420955031251	-1.2047498094765623
O	1.7611035494015628	11.00090550503125	-0.7142367204765624
O	-2.027224255598437	10.89301700503125	-0.7399095024765624
O	-2.267389359598437	8.002930525031251	-3.2496791394765623
O	1.041876859401563	6.153073325031251	-3.0311905494765625
O	4.3737818594015625	6.0438690650312505	-4.993349689476562
O	4.655907719401563	3.2338309950312505	-7.5282977994765625
O	2.145967749401563	-0.35516084496874933	-11.703357509476563
O	2.949552659401563	-1.3980657449687492	-8.179174929476563
O	2.850171449401563	0.5082858220312507	-4.907991069476562
O	6.190157839401563	0.7304424730312506	-3.1288645194765623
O	5.248653779401563	-0.36248739496874927	0.39593104952343755
O	7.913754139401563	-0.5870348149687494	3.1460533505234376
O	5.200847949401563	-1.1994433349687492	5.705086310523438
O	4.100604539401562	-4.682317974968749	4.439205570523438
O	5.554659009401563	-7.896444084968749	3.1421287405234377
O	3.3172114894015627	-9.37637268496875	0.41007685852343756
O	3.519817059401563	-8.817702234968749	-3.330336969476562
O	-0.2509969805984371	-8.59328605496875	-3.9280953294765624
O	-1.674592182298437	-7.7159083249687495	-7.371871339476562
O	-6.085459600598437	-9.91546408496875	4.714869830523438
O	-8.652088920598437	-7.871742404968749	6.663744670523438
O	-7.916429790598437	-4.4951254649687495	8.215409930523437
O	-9.863365700598438	-1.5077935049687494	9.794122330523436
O	-10.211020150598438	0.42506655603125065	6.4601918505234375
O	-11.152682690598438	-2.6939536949687493	4.452663190523437
O	-9.568088040598438	-5.88895090496875	3.1005417305234375
O	-7.9932989705984365	-7.8299711349687495	0.28329541452343754
O	-8.361557040598438	-11.51035448496875	-0.49197461747656246
O	2.326581829401563	-13.38501008496875	-6.015398989476562
O	-0.989329344598437	-13.06526598496875	-4.227911539476563
O	-11.106629270598438	-6.35840933496875	-2.098001239476562
O	-12.782809690598437	-3.6021416949687493	-0.054213346476562424
O	-11.347051630598438	-0.04283805496874926	0.1680786380234376
O	-7.985650550598438	-1.3565683349687494	-1.0181875394765623
O	-7.561390410598436	-0.0877129949687494	-4.613475879476562
O	-7.653241420598437	3.7473347850312506	-5.047303559476562
O	-9.469876290598437	5.56786752503125	-7.762760909476563
O	-6.942734970598437	7.43214959503125	-9.953247709476564
O	-3.828576930598437	6.08639788503125	-8.059682789476563
O	-2.6880173605984368	4.398200905031251	-11.303550009476563
O	-1.340642424598437	1.3276809670312506	-9.471578229476563
O	-2.738225820598437	-2.2265093849687494	-9.640036019476563
O	-0.848845313598437	-3.9725281949687496	-6.8585646794765625
O	1.5065102694015629	-3.5307977049687493	-3.9260103294765623
O	5.101610739401563	-4.47826400496875	-3.3538107294765624
O	5.546185729401563	-5.274451834968749	0.2718184695234376
O	9.170766009401563	-4.57077588496875	1.0256833385234376
O	9.210092209401562	-5.393920784968749	4.750583210523438
O	10.244860109401563	-8.77311840496875	6.354165150523437
O	9.980928109401562	10.07625453503125	-2.649718529476562
O	9.412118709401563	-7.42177001496875	10.887754090523437
O	8.404412509401563	-3.8662751349687494	9.995261710523437
O	6.448245389401562	3.2370741850312506	6.0804496505234376
O	6.324338079401564	4.48038803503125	2.4278880605234376
O	2.7949703294015626	2.9975676750312505	2.3676349505234375
O	1.435998479401563	5.40856597503125	5.0795777705234375
O	0.613286469401563	8.998969765031251	3.9339526005234378
O	1.1231342494015628	10.86546899503125	7.380557090523438
O	-0.513732640598437	15.45610391503125	7.599283430523438
O	-2.344529605598437	12.23057981503125	12.896761190523437
O	5.0509076294015625	7.95993041503125	6.495719200523438
O	5.415203459401562	9.37559211503125	2.9525846705234375
O	5.137220889401563	13.05337561503125	4.019693840523438
O	10.094038509401562	10.41301303503125	3.741013820523438
