28

O	22.864	12.918	22.151
O	22.776	11.74	22.437
O	22.533	10.552	21.43
O	22.698	9.362	22.329
O	22.853	9.782	23.595
O	22.944	11.2	23.691
O	22.979	8.988	24.657
O	23.18	11.999	24.9
O	21.1	10.596	20.863
O	20.342	9.433	20.766
O	19.04	9.467	20.269
O	18.481	10.659	19.87
O	19.22	11.824	19.954
O	20.525	11.794	20.441
O	23.644	10.601	20.364
O	23.355	10.882	19.031
O	24.374	11.065	18.108
O	25.694	10.956	18.504
O	26.015	10.644	19.829
O	24.977	10.462	20.751
O	29.997	10.494	21.415
O	27.773	9.576	21.246
O	27.429	10.516	20.273
O	28.412	11.412	19.846
O	29.682	11.4	20.413
O	29.04	9.569	21.818
O	29.203	8.617	22.795
O	30.409	8.653	23.574
