63

O	1.3340451402795237	0.846334257542857	0.15512303047619044
O	2.2341687712795237	1.682117867542857	0.5441843784761904
O	2.6764991212795235	1.2961613155428569	1.7689332234761905
O	3.4912585412795236	0.15828451254285691	1.7689516834761903
O	3.0508674312795234	-0.7175064074571431	0.8515438254761905
O	1.8362888012795238	-0.410578487457143	0.23422672747619044
O	6.092983321279524	1.811020336542857	0.5742991934761905
O	2.3333953112795234	5.802293332542857	-0.09333226952380957
O	3.5264010712795235	5.148538712542857	0.03447273547619045
O	1.2354485092795235	4.975049522542857	-0.3098679015238095
O	3.6175840812795235	3.7972389125428574	0.19007265147619046
O	1.3616221222795235	3.701232412542857	0.24960861187619043
O	4.980647691279524	-0.01377809745714309	-0.30236839952380956
O	4.050417431279524	-1.0412306774571432	-0.007234846523809568
O	4.895326391279524	0.151363942542857	1.9543255234761903
O	-1.0013144787204764	-1.4056860274571432	-0.03320071052380957
O	-0.7275406887204764	-0.06697584745714313	-0.4943576865238095
O	1.3241518212795236	-1.3309979374571432	-0.6547029465238096
O	5.5040834712795235	0.5207153225428569	0.7936055004761904
O	2.5436049312795235	3.0155792925428573	0.29484146757619045
O	-0.02207649072047646	-1.235780277457143	-0.9861774065238095
O	-2.5292585887204764	-2.861502887457143	-11.82788019652381
O	-1.3792062987204763	-3.559400637457143	-8.32440735652381
O	-2.6388892887204767	-1.129108467457143	-5.65205876652381
O	0.9380420972795236	0.17555971254285696	-4.653687486523809
O	1.2553976172795236	1.480933546742857	-8.29160915652381
O	-2.0437939787204766	3.445580962542857	-8.35729770652381
O	-1.0458369287204765	4.865159002542857	-4.9470262465238095
O	2.3406420212795234	6.005960232542857	-6.35597487652381
O	4.657486211279524	3.8337147125428572	-4.16111234652381
O	8.145877391279523	4.375572212542857	-5.50495994652381
O	9.606935211279524	1.055216897542857	-4.58031628652381
O	6.991728151279524	-1.443717017457143	-5.81018439652381
O	8.721364301279523	-4.6736860074571425	-6.88626225652381
O	8.229172401279524	-7.783309167457142	-9.06478093652381
O	3.1737560212795235	-6.208515877457143	-9.02719069652381
O	-1.0646767087204765	-9.156364917457143	-8.760731436523809
O	-8.876906098720477	-7.613225747457143	-0.19593048952380954
O	-10.135160938720476	-5.373621237457143	2.5826061734761905
O	-8.330960268720476	-2.297663327457143	3.9231153434761903
O	-4.796105258720476	-2.3417116074571434	5.188108563476191
O	-4.118304598720476	-4.0040604274571425	8.54964992347619
O	1.0747402142795237	-4.503605517457143	9.91918459347619
O	0.8008018562795236	-2.899857037457143	6.37950471347619
O	-0.08037181272047644	0.6080258125428569	7.61949284347619
O	3.0001361012795233	0.836193886542857	9.87762829347619
O	5.169261431279524	0.326807892542857	6.872633403476191
O	3.5330540512795237	3.300912792542857	4.9200690434761905
O	6.090762241279524	6.095875762542857	4.43829659347619
O	3.6530743812795237	8.659811682542857	3.0177495634761904
O	1.6397289212795236	10.413551862542857	5.64517074347619
O	-1.4882749887204767	8.134629592542856	1.7414084934761904
O	-1.5389469687204764	6.332798922542858	5.09927168347619
O	-4.087352188720476	8.755216942542857	6.4431398634761905
O	-6.223554038720476	8.370808942542856	3.34271776347619
O	-6.180085728720476	4.6286645425428565	3.58240432347619
O	-6.588278598720476	4.659150292542857	7.31036731347619
O	-9.582218438720478	6.992481632542857	6.928772823476191
O	-2.6762144287204763	-10.075475517457143	-1.0167520065238094
O	-2.8903817787204766	-6.364906627457143	-0.5462608955238095
O	0.5358722415395236	-6.233167647457143	1.1823426154761905
O	3.0673396212795234	-6.793044917457143	-1.5728363965238095
O	5.669605441279524	-8.036683247457143	0.9736252074761904
