24

O	-28.177	-10.554	-7.89
O	-26.173	-11.039	-6.292
O	-24.653	-15.733	-8.815
O	-26.743	-12.627	-8.054
O	-22.424	-14.693	-8.884
O	-25.723	-13.457	-7.663
O	-21.468	-13.722	-8.82
O	-20.121	-15.631	-8.275
O	-21.315	-16.398	-7.814
O	-24.435	-13.216	-8.424
O	-23.14	-20.218	-5.924
O	-21.711	-19.943	-7.903
O	-24.102	-20.031	-8.194
O	-21.971	-18.074	-6.248
O	-24.389	-18.213	-6.492
O	-20.352	-14.22	-8.031
O	-21.698	-17.276	-8.897
O	-27.042	-11.449	-7.437
O	-23.775	-14.532	-8.717
O	-21.884	-19.583	-6.435
O	-24.299	-19.698	-6.729
O	-22.853	-19.372	-8.71
O	-23.145	-17.545	-7.031
O	-22.947	-17.878	-8.497
