24

O	-2.5513391494750977	36.478302001953125	-36.67005157470703
O	-2.6167869567871094	33.890167236328125	-36.98963165283203
O	2.200103759765625	33.606075286865234	-39.714786529541016
O	-0.7944459915161133	35.19475173950195	-37.95317840576172
O	2.772671699523926	31.896398544311523	-38.04027557373047
O	-0.23297405242919922	34.0587272644043	-38.47889709472656
O	2.699069023132324	31.1590518951416	-36.89495086669922
O	3.803812026977539	29.56879425048828	-38.311405181884766
O	3.2765417098999023	30.230066299438477	-39.54069137573242
O	0.8124189376831055	33.43831253051758	-37.574249267578125
O	2.82979679107666	30.34132957458496	-44.154056549072266
O	4.842194557189941	30.283597946166992	-42.74656677246094
O	4.016901016235352	32.41386795043945	-43.51477813720703
O	2.590372085571289	29.75023651123047	-41.774658203125
O	1.741490364074707	31.872085571289062	-42.612953186035156
O	2.846668243408203	29.752986907958984	-37.23727035522461
O	4.335365295410156	31.06785774230957	-40.057857513427734
O	-1.9536161422729492	35.206851959228516	-37.23627471923828
O	1.9565057754516602	32.935306549072266	-38.405731201171875
O	3.4854698181152344	29.64451789855957	-43.00235366821289
O	2.6643199920654297	31.7938289642334	-43.80112838745117
O	4.661800384521484	31.727806091308594	-42.34261703491211
O	2.397213935852051	31.203744888305664	-41.426517486572266
O	3.7510013580322266	31.823516845703125	-41.13948059082031
