24

O	34.07	23.555	28.879
O	33.347	24.425	29.775
O	32.106	24.528	29.721
O	34.094	25.171	30.754
O	35.507	25.042	30.835
O	36.111	25.682	31.698
O	36.206	24.188	29.942
O	35.496	23.467	28.962
O	37.514	24.031	30.006
O	38.832	23.861	30.036
O	40.2065	23.6837	30.0673
O	33.318	22.799	27.838
O	40.881	22.9637	31.0529
O	41.0145	23.5396	32.3253
O	33.773	23.084	26.354
O	33.998	24.505	26.166
O	32.709	22.452	25.368
O	33.069	22.501	23.991
O	32.377	21.013	25.807
O	31.233	20.527	25.08
O	32.151	20.863	27.363
O	33.272	21.392	28.056
O	32.125	19.374	27.854
O	33.197	18.601	27.246
