27

O	0.5985701084136963	0.846863329410553	-0.05843847244977951
O	-0.7313650250434875	0.6275838017463684	-0.22797705233097076
O	-1.083168864250183	-0.19995346665382385	-1.2269715070724487
O	0.4673135578632355	-0.6431913375854492	-1.891913652420044
O	1.4798918962478638	0.25777462124824524	-0.8553054928779602
O	2.9201371669769287	0.3837616741657257	-0.807241678237915
O	4.121680736541748	0.4737827777862549	-0.757135272026062
O	5.601744174957275	0.6000585556030273	-0.7099859714508057
O	6.229008674621582	0.04034773260354996	-1.9588252305984497
O	6.020138740539551	-0.20536282658576965	0.4868353009223938
O	6.041533470153809	2.0240368843078613	-0.5361877679824829
O	-1.6351078748703003	1.2800101041793823	0.6429224014282227
O	-2.094273805618286	0.835942268371582	1.8529285192489624
O	-2.0886216163635254	2.561168909072876	0.21003583073616028
O	-1.7853301763534546	-0.5103121399879456	2.5570993423461914
O	-2.8740737438201904	1.5169087648391724	2.576869010925293
O	-2.6273791790008545	-1.443115472793579	1.5088835954666138
O	-1.8865971565246582	-2.6180882453918457	1.1642934083938599
O	-1.0476303100585938	-3.2288012504577637	2.418929100036621
O	0.054636478424072266	-2.041797637939453	2.5782976150512695
O	-0.32983872294425964	-0.815030038356781	1.9024288654327393
O	-2.0377469062805176	-2.646911144256592	3.590925455093384
O	-1.5896694660186768	2.8729963302612305	-1.113808274269104
O	-3.5285286903381348	2.5675601959228516	0.09885313361883163
O	-2.3628408908843994	-0.6703193783760071	-1.7668299674987793
O	-2.374831438064575	-1.555930495262146	-2.8304221630096436
O	-3.4576520919799805	-0.3099822998046875	-1.3121286630630493
