27

O	9.171	33.092	73.798
O	7.811	33.478	74.099
O	6.969	33.08	73.056
O	7.808	32.307	71.79
O	9.298	32.459	72.577
O	10.495	31.965	71.986
O	11.463	31.528	71.432
O	12.642	30.994	70.722
O	13.899	31.621	71.347
O	12.696	29.461	70.831
O	12.565	31.396	69.237
O	7.357	34.129	75.273
O	7.307	35.527	75.38
O	6.922	33.375	76.382
O	7.813	36.314	74.164
O	6.917	36.123	76.389
O	6.949	37.545	73.844
O	7.56	38.345	72.687
O	8.991	38.794	73.031
O	9.867	37.591	73.392
O	9.245	36.742	74.501
O	9.629	39.58	71.88
O	5.581	32.81	76.29
O	7.949	32.479	76.902
O	5.551	33.208	72.813
O	4.904	32.577	71.988
O	4.995	34.171	73.589
