77

O	-1.525617420479592	1.7368578350204082	1.2879901657551023
O	2.115478675520408	2.730517765020408	-0.8748489752448976
O	0.6843729855204079	-1.5865013849795917	2.3458962647551025
O	1.2416193855204078	-2.9298780949795917	2.165919684755102
O	2.689062875520408	-3.1830296849795916	2.2060979247551025
O	2.9521491455204076	-4.561895374979592	1.6441741847551024
O	1.9258829755204079	-5.580611314979592	2.1281525647551023
O	1.4215594955204078	-5.046846144979591	3.463910344755102
O	0.551156565520408	-3.872998324979592	3.099606744755102
O	-3.462099774479592	-1.6890289649795918	2.7167439447551023
O	-4.665178744479592	-1.6061950949795918	3.347919964755102
O	-5.118118344479592	-0.3499876639795918	3.5913947147551024
O	-4.561447284479592	0.7499777470204083	3.0365249047551024
O	-4.813174364479592	-4.407184554979592	4.000568854755103
O	-0.812718849479592	0.5987514050204082	1.5368940447551025
O	0.4866861855204079	0.5013163950204083	1.2673580847551023
O	1.292546325520408	-0.6043716529795917	1.5582392847551023
O	0.9887761055204078	1.4084713350204083	0.38701046125510236
O	2.1997919855204078	1.7240538450204081	-0.01731022824489764
O	0.935077565520408	3.2852870150204083	-0.7183669452448975
O	0.188524815520408	2.439873795020408	-0.01410279624489763
O	-1.023515617279592	2.708519415020408	0.5289094787551023
O	-2.892846194479592	1.8649933650204082	1.6555633047551024
O	-3.4378454044795923	0.7277913850204083	2.278704474755102
O	-2.858844594479592	-0.5441282239795917	2.2719833347551024
O	-5.634299134479592	-2.9063704749795916	3.9746904447551024
O	-6.867789904479593	-2.9286669449795917	3.0976598747551023
O	-6.179470574479592	-2.5984233949795916	5.356791654755102
O	-2.6516326944795923	4.293577125020408	12.037630114755103
O	-0.841808342479592	1.077951127020408	11.103261914755103
O	-1.718869528479592	-0.36191070597959174	7.701725094755102
O	0.298286655520408	-3.5700528449795916	7.773420944755102
O	3.5561817655204075	-5.342138794979592	7.237846384755102
O	4.978684915520407	-6.227556054979592	3.8401058947551023
O	8.24565527552041	-7.901167904979593	2.7321543947551024
O	10.023650635520408	-5.867036404979592	5.372320864755102
O	6.093427215520408	-1.4443838449795918	8.764755854755103
O	3.6853459355204077	0.7165924730204083	6.784451914755103
O	1.6937705655204078	3.520084485020408	8.443223464755103
O	-1.005847466979592	5.818947275020408	7.130370444755102
O	0.18597016552040802	9.404158135020408	7.805735064755102
O	-2.143124354479592	11.786856475020407	2.997702354755102
O	0.779413415520408	9.385013055020409	2.558430644755102
O	1.908152855520408	5.846025385020408	3.3560296247551022
O	5.108858965520407	5.613200675020408	5.449940704755102
O	7.328139355520407	2.532775655020408	5.194381644755103
O	12.92320093552041	-1.4005750749795918	-3.677946945244898
O	2.870584035520408	1.7059139250204083	-9.958667085244898
O	2.791507225520408	3.038247675020408	-6.393415595244898
O	7.196193585520407	8.110815895020409	1.8191801347551024
O	4.667834205520408	6.782775305020408	-0.7341445852448976
O	1.4128500555204078	8.038813125020408	-2.255847185244898
O	-1.458646732479592	6.656679625020407	-0.08612242724489766
O	-3.9387988244795924	4.247672895020408	-1.6011568352448975
O	-7.213740134479592	3.3989176250204083	0.11933652475510237
O	-7.598305734479593	-0.4173758289795918	0.06640546375510237
O	-5.906451914479592	-3.570902464979592	-1.2154458452448975
O	-7.610554364479592	-5.8239836549795925	-3.837172415244898
O	-8.026826354479592	-8.731935854979593	-1.3920491852448975
O	-10.146745414479591	-6.741794314979591	1.0519422047551024
O	-0.929029770479592	-11.194758424979593	-5.195153015244898
O	-4.155336994479592	-9.398761384979592	-4.192473855244898
O	-2.609015244479592	-7.969019624979593	-0.9887721652448975
O	0.035136375520407936	-6.1131854349795915	-3.0933821252448976
O	-2.467105284479592	-4.600309404979592	-5.540513855244898
O	-3.8047240944795924	-1.2860293349795917	-4.230367515244898
O	-6.9441561144795925	0.5918018580204083	-5.272578065244898
O	-8.158817164479592	4.168914475020408	-4.785004595244898
O	-11.582711264479592	5.929502905020408	-4.872887075244898
O	-7.078788734479592	3.242983165020408	-10.209103885244897
O	-5.292665644479592	-0.005733685979591785	-9.321925865244896
O	-1.5276821964795921	0.023839692020408254	-8.657227855244898
O	1.3781919355204078	-2.374777944979592	-8.133399295244898
O	2.913494165520408	-2.1601287449795916	-4.690675995244898
O	5.529185925520408	-3.8297225049795913	-2.468073195244898
O	8.587157665520408	-4.011846454979592	-4.692915665244898
O	10.620510535520408	-5.586973334979591	-1.8439295252448977
