28

O	-7.907	-23.45	24.237
O	-10.765	-20.912	22.33
O	-5.26	-21.308	22.246
O	-4.364	-21.101	21.071
O	-4.838	-21.872	19.883
O	-4.057	-21.339	18.73
O	-2.571	-21.566	18.906
O	-2.063	-21.135	20.272
O	-2.98	-21.587	21.379
O	-4.39	-25.949	24.067
O	-4.031	-26.601	25.229
O	-4.86	-26.478	26.304
O	-6.014	-25.738	26.21
O	-1.725	-26.756	24.515
O	-7.072	-22.787	23.456
O	-7.465	-21.848	22.635
O	-6.586	-21.202	21.884
O	-8.773	-21.544	22.582
O	-9.531	-20.71	21.943
O	-10.845	-21.87	23.233
O	-9.635	-22.288	23.438
O	-9.189	-23.22	24.243
O	-7.481	-24.393	25.054
O	-6.352	-25.083	25.058
O	-5.534	-25.199	23.98
O	-2.708	-27.441	25.286
O	-2.81	-28.669	24.682
O	-2.17	-27.566	26.545
