28

O	0.25707873702049255	-0.03873651102185249	-0.031875863671302795
O	-1.4334170818328857	-1.9791110754013062	3.6138851642608643
O	-3.8519058227539062	0.14131073653697968	-0.9986021518707275
O	-5.359435081481934	0.01921137236058712	-0.9749388098716736
O	-5.998838901519775	0.5855008959770203	-2.2058801651000977
O	-7.466854095458984	0.13976241648197174	-2.200093984603882
O	-8.128768920898438	0.7887939810752869	-0.9862897992134094
O	-7.101689338684082	1.5098910331726074	-0.13763035833835602
O	-5.964099884033203	0.5975607633590698	0.2619909346103668
O	4.831881523132324	1.0000860691070557	-1.4423454999923706
O	5.39183235168457	0.4686741530895233	-0.2929338216781616
O	4.518957138061523	-0.0583379864692688	0.6362054347991943
O	3.1575512886047363	-0.06986474990844727	0.4584462642669678
O	7.773257732391357	-0.9432295560836792	-0.7689594030380249
O	-1.0402414798736572	0.02205822803080082	-0.3450254499912262
O	-1.9855579137802124	-0.4608406722545624	0.48504260182380676
O	-3.348402500152588	-0.40928882360458374	0.18085283041000366
O	-1.618653416633606	-1.0349209308624268	1.6914253234863281
O	-2.338860273361206	-1.5915757417678833	2.7026567459106445
O	-0.20008309185504913	-1.6802905797958374	3.1957406997680664
O	-0.2695431113243103	-1.0888274908065796	1.9983189105987549
O	0.6242496967315674	-0.5883122086524963	1.1253252029418945
O	1.2104039192199707	0.4849541485309601	-0.9424580931663513
O	2.608417272567749	0.4599265456199646	-0.6861174702644348
O	3.4639034271240234	0.991519570350647	-1.6270225048065186
O	7.113295555114746	0.5013701915740967	-0.10453245043754578
O	7.501311779022217	0.557194173336029	1.3420343399047852
O	7.654211521148682	1.6755220890045166	-0.8813037276268005
