19

O	17.66309039797249	6.371664208780109	12.105353257029263
O	16.84105892450844	7.601620105927163	12.4853348342311
O	17.442179943743252	8.702602826870026	12.891946409899388
O	16.690077528219827	9.729727312933518	12.537974972899644
O	17.046515287094213	11.077554835357976	12.59374864057552
O	16.170222179951516	12.052209249174101	12.373656705898574
O	15.01745125782061	11.722472762388744	11.787388738502544
O	14.678149446162719	10.380063847004731	11.505767436148124
O	15.576468905384077	9.353476092621907	11.825480307419669
O	15.685849797315953	7.999717354901765	11.776735987283338
O	14.664694235514965	7.0436524409491446	11.474743950706362
O	14.787026966723516	5.798003699443518	12.235625168239865
O	15.47430549726348	4.76911364171397	11.31436790024012
O	14.42229918086586	4.087328475765771	10.641169417867209
O	13.545631257073724	5.213471874606584	10.276727013105269
O	14.268092868516487	6.5530965687898055	10.167202045751818
O	13.43045886453839	10.422357659376699	10.947054048049255
O	13.094128182737244	11.73347163458381	10.852460962804404
O	14.031309095029775	12.546072788214268	11.401046924581346
