19

O	2.365954875946045	-2.5985047817230225	-0.23473861813545227
O	0.9762872457504272	-2.0276193618774414	-0.29945358633995056
O	-0.17274592816829681	-2.7193546295166016	-0.4354732036590576
O	-1.1981651782989502	-1.8304098844528198	-0.4500717520713806
O	-2.559937000274658	-1.9251283407211304	-0.5598641037940979
O	-3.366206169128418	-0.8498779535293579	-0.5446627736091614
O	-2.841099977493286	0.3839828670024872	-0.4174421727657318
O	-1.4884692430496216	0.5674628019332886	-0.3020493686199188
O	-0.6787983775138855	-0.5490351319313049	-0.31991469860076904
O	0.652682900428772	-0.723684549331665	-0.23150645196437836
O	1.5617731809616089	0.41860419511795044	-0.08168244361877441
O	2.9459328651428223	-0.10351873934268951	-0.04602919891476631
O	3.9201700687408447	0.6176576614379883	0.7711868286132812
O	3.5038769245147705	1.7001079320907593	1.5490400791168213
O	2.2685928344726562	2.3162717819213867	1.2255117893218994
O	1.2089091539382935	1.2078559398651123	1.1698464155197144
O	-1.2397531270980835	1.9298650026321411	-0.18665537238121033
O	-2.4601900577545166	2.5643506050109863	-0.23406311869621277
O	-3.3988149166107178	1.6209745407104492	-0.3719782531261444
