76

O	-3.3417463838596495	1.3346391150701753	-4.086637073232281
O	-3.0091342138596495	1.0604033810701754	-2.621346263232281
O	-3.4014932338596497	1.8995388730701754	-1.682864281232281
O	-2.5197624638596494	1.8499222070701753	-0.6999972672322808
O	-2.44312418385965	2.7167136810701753	0.3906890867677191
O	-1.6282220618596497	2.494570051070175	1.416782666767719
O	-0.6534961198596497	1.5990270540701754	1.2458172967677192
O	-0.5443362858596497	0.8274604900701753	0.06714552676771923
O	-1.4659825258596497	1.0103944797401754	-0.9721715336322808
O	-1.7705846978596496	0.5245197370701753	-2.2043022732322806
O	-1.2370087875596496	-0.6355476089298246	-2.850489933232281
O	-2.2151697038596496	-1.3452466589298249	-3.678182383232281
O	-1.9782984148596499	-0.9060192289298248	-5.137857943232281
O	-1.0536771227596498	-1.8421340589298247	-5.679622643232281
O	-0.08246699385964962	-1.9479065689298247	-4.577294683232281
O	-0.03994593385964973	-0.7238686189298247	-3.6670947732322805
O	0.5327417161403503	0.006769682070175365	0.2596313167677191
O	1.0579086661403503	0.33582166707017536	1.4666982167677192
O	0.3224750261403504	1.2775402880701754	2.1084759467677188
O	5.528477196140351	12.991135011070176	-3.931497933232281
O	1.8329480161403504	12.724075311070175	-4.428286193232281
O	0.6151651061403502	9.989935001070176	-6.614798343232281
O	1.4282030861403503	6.551093881070176	-7.503951333232281
O	-0.032418573859649635	3.581768901070175	-5.943540403232281
O	1.2340448861403503	0.39814995507017537	-7.304675643232281
O	4.01258876614035	-0.04965051892982464	-9.77374810323228
O	6.623223896140351	-2.7488344689298247	-10.38104704323228
O	7.369469376140351	-5.250674618929825	-11.27483454323228
O	10.68279970614035	-4.787344618929825	-9.44213395323228
O	9.08533540614035	-2.2469984989298246	-7.080530193232281
O	6.75674984614035	0.7757200660701753	-6.692808773232281
O	4.59011327614035	2.3360851310701753	-3.9430350932322806
O	3.92986185614035	6.100537901070175	-3.921550273232281
O	1.6838773961403501	8.346904891070174	-1.8359192442322807
O	3.89936797614035	10.979406061070176	-0.2064926582322808
O	3.57954989614035	13.789183811070176	2.3155516267677188
O	0.5603908661403503	11.057289711070176	4.397951556767719
O	2.76991331614035	7.943532171070175	4.102458406767719
O	3.21324450614035	5.053707021070175	1.6591637567677193
O	6.72373414614035	4.922340421070175	0.13653436676771924
O	8.12512166614035	1.7728566620701753	-1.4973737672322809
O	-4.0202507038596496	-5.093434318929825	13.76080725676772
O	-4.19383511385965	-6.878387408929824	10.35911125676772
O	-0.7130918768596497	-5.966543188929824	8.99650876676772
O	0.1997269761403504	-2.5892661789298246	7.378412526767719
O	2.2966506061403504	-0.5743530489298247	9.87472475676772
O	6.0240580261403505	-0.2864284289298247	9.18823495676772
O	10.61227600614035	1.8259361600701753	2.713949756767719
O	8.07575093614035	3.9220997110701754	4.664928176767719
O	4.69906067614035	2.3073452710701754	5.481779926767719
O	1.3863540761403503	3.7905593710701755	6.708595696767719
O	-0.9370903018596497	5.1100936510701755	3.978060296767719
O	-4.46607907385965	3.6690934810701754	3.8236729367677187
O	-6.960602183859649	6.0710530710701756	2.084942656767719
O	-9.484457103859649	3.272428741070175	1.234207176767719
O	-6.766755203859649	1.5100622930701753	-0.9584071532922809
O	-6.8665095338596505	-2.2151244789298246	-1.842053839232281
O	-9.666536663859649	-4.542107568929825	-0.8726296949322808
O	-9.872758273859649	-5.415382548929824	-4.622655883232281
O	-10.750972943859649	-1.8138302589298245	-5.680002623232281
O	-12.86780149385965	-1.2586554989298246	-2.4962661532322805
O	-1.8885828998596497	-13.713695088929825	-1.1235201552322809
O	-4.36275669385965	-11.852796788929824	-3.4337588032322808
O	-7.12799737385965	-9.200430188929825	-2.767188023232281
O	-4.968655803859649	-6.583538548929825	-4.446422793232281
O	-2.3538883438596496	-7.220566938929824	-1.6705932362322808
O	-4.96458934385965	-6.637407838929825	1.112019686767719
O	-5.71385125385965	-2.9936241489298245	2.2183146967677194
O	-8.844626503859649	-1.4261857789298245	3.7747593867677187
O	-8.18757704385965	0.6977413090701754	6.891363126767719
O	-4.6671304738596495	-5.336436748929825	6.521509756767719
O	-2.1719208538596497	-7.500792098929825	4.579204586767719
O	-0.46806084685964966	-4.623506968929824	2.651458126767719
O	2.5898993061403504	-6.035283528929825	0.7892762367677191
O	5.52885072614035	-8.428460418929825	1.7507386467677193
O	7.66198895614035	-8.220394228929825	-1.458518256232281
