20

O	-4.007713317871094	0.5883867144584656	1.5299675464630127
O	-1.8690255880355835	0.0339445136487484	0.8594695925712585
O	-2.1726012229919434	0.5954009294509888	-0.3934425413608551
O	-3.399397373199463	1.1538004875183105	-0.6802095174789429
O	2.8237791061401367	2.7383170127868652	1.176120400428772
O	4.034549236297607	1.7789838314056396	0.5356345176696777
O	3.847860336303711	0.3319993019104004	-0.36032834649086
O	3.218604564666748	-0.8477816581726074	0.5612905621528625
O	1.8373010158538818	-0.06345489621162415	0.9137816429138184
O	1.5189919471740723	-1.4787158966064453	1.564272403717041
O	0.06112298741936684	-1.0853108167648315	1.9821995496749878
O	-0.5789638757705688	-0.43273332715034485	0.8232006430625916
O	-0.1287592351436615	-0.15178537368774414	-0.4285424053668976
O	-1.0850356817245483	0.47177958488464355	-1.1777957677841187
O	-3.730950355529785	1.7272948026657104	-1.9376311302185059
O	-4.290564060211182	1.1234478950500488	0.32923051714897156
O	-2.835111379623413	0.06687141954898834	1.770058035850525
O	1.1853328943252563	-2.155153274536133	0.1859162598848343
O	2.377887010574341	-1.5561145544052124	-0.7346125245094299
O	3.192692756652832	-2.839176893234253	-0.6794529557228088
