23

O	-34.301	-6.145	6.796
O	-36.927	-5.514	6.227
O	-36.145	-4.793	7.217
O	-38.239	-3.955	7.105
O	-33.922	0.506	8.714
O	-34.016	-0.593	7.813
O	-35.05	-0.282	6.757
O	-34.777	-0.971	5.426
O	-33.445	-0.324	4.457
O	-34.367	0.833	3.468
O	-33.476	1.522	2.438
O	-33.978	2.917	2.023
O	-35.326	2.858	1.378
O	-36.345	-0.862	7.334
O	-35.979	-1.599	8.551
O	-34.531	-1.875	8.454
O	-36.841	-2.742	8.881
O	-38.154	-4.961	6.204
O	-36.268	-6.605	5.526
O	-36.957	-7.287	4.572
O	-34.865	-5.121	7.496
O	-37.06	-3.782	7.8
O	-34.951	-6.855	5.834
