23

O	-35.70275130359485	-5.437352388497121	6.452243652057946
O	-37.49131578410834	-3.8147273093540988	5.395328993017915
O	-36.46302063218816	-3.287889794431025	6.082128281283101
O	-37.979852460767475	-1.7534453208509835	5.954916390131284
O	-35.54673539181623	0.9867155342495706	9.127913980073256
O	-34.95317865574071	1.0530151499968365	7.821767412263451
O	-36.04514715893462	1.1952079711959707	6.933364055877012
O	-36.29528455466123	0.9131937802992045	5.52982374610924
O	-34.57184121681607	1.3007336262828697	5.045211367087472
O	-35.47545847051952	2.1612400680494823	3.798699685639999
O	-35.98014435002974	1.0226031334113612	2.802058936771753
O	-34.8493989864177	1.0448801671424013	1.7803827609333656
O	-35.00311961437121	2.3125017733998914	0.9999263644191405
O	-36.701920429737825	-0.13520879881840786	7.345304174529934
O	-35.586937300113654	-0.9160408434648191	7.320904017668705
O	-34.44325936277426	-0.31944492036292393	7.673928356237132
O	-35.47053542809831	-1.0991197944852835	5.83866155830838
O	-38.48098301221294	-2.9104676878235067	5.4439302744797295
O	-37.54140577842054	-5.125066763915239	5.145240091541533
O	-38.617042044055566	-5.686162192440973	4.455710600462401
O	-35.56242876282447	-4.11825243904487	6.591077973695624
O	-36.65747461130061	-1.9324316685273366	5.72551418702156
O	-36.52780911142615	-5.884330551876765	5.513429494553641
