23

O	-4.1552042961120605	0.7691464424133301	-1.9656264781951904
O	-3.923741579055786	0.32814204692840576	0.6857747435569763
O	-2.805743455886841	0.4777933359146118	-0.09869462251663208
O	-2.1526498794555664	0.13979655504226685	1.9933733940124512
O	0.6835981607437134	-3.134406089782715	0.3504470884799957
O	0.5355236530303955	-1.6575627326965332	0.10952139645814896
O	2.181382417678833	-1.3247268199920654	0.34424281120300293
O	2.404982805252075	-1.0283081531524658	-1.2478636503219604
O	4.0505523681640625	-0.6176905035972595	-1.5252279043197632
O	4.569417476654053	0.9630160331726074	-0.7713979482650757
O	6.023253440856934	0.9689499139785767	-1.2348545789718628
O	6.700692653656006	-0.2414635866880417	-0.6886518001556396
O	8.141582489013672	-0.21095041930675507	-1.1567974090576172
O	1.9683985710144043	0.1946108639240265	0.727715253829956
O	0.6115302443504333	0.27106112241744995	1.48899245262146
O	0.37467724084854126	-1.2794253826141357	1.6842079162597656
O	-0.29958295822143555	0.4656098783016205	0.20116937160491943
O	-3.4979634284973145	0.12533041834831238	1.9462422132492065
O	-5.178234577178955	0.4027749001979828	0.12182604521512985
O	-6.367099285125732	0.2536003291606903	0.9170946478843689
O	-2.9513816833496094	0.6960179805755615	-1.4144508838653564
O	-1.6850030422210693	0.3582075238227844	0.7273340821266174
O	-5.228987693786621	0.622879147529602	-1.1943761110305786
