25

O	4.886931896209717	-2.7663519382476807	1.9370501041412354
O	4.526396751403809	-2.3567960262298584	0.6067985892295837
O	5.513591289520264	-2.3730885982513428	-0.4373268187046051
O	3.203129529953003	-1.9329273700714111	0.3028678297996521
O	2.261445999145508	-2.826197862625122	-0.10213969647884369
O	1.0273267030715942	-2.460803508758545	-0.39021438360214233
O	0.5902883410453796	-1.1988370418548584	-0.31316009163856506
O	1.5137286186218262	-0.2307102084159851	0.09864980727434158
O	1.1144720315933228	1.1662567853927612	0.2086905986070633
O	0.6894762516021729	1.8993089199066162	-0.8705751299858093
O	0.3179157078266144	3.2407636642456055	-0.7053844332695007
O	0.37767213582992554	3.816230535507202	0.5199339985847473
O	0.7885358333587646	3.1217730045318604	1.5860403776168823
O	1.1601073741912842	1.7900489568710327	1.4355226755142212
O	2.799398422241211	-0.6243849992752075	0.39660993218421936
O	-0.7649150490760803	-0.7640160322189331	-0.6246418952941895
O	-1.5083447694778442	-0.20701996982097626	0.3883598744869232
O	-2.800506114959717	0.23698881268501282	0.201210618019104
O	-3.5291712284088135	0.7969214916229248	1.2460436820983887
O	-4.804775714874268	1.2193504571914673	1.0032304525375366
O	-5.382425308227539	1.106074571609497	-0.2384808361530304
O	-4.668584823608398	0.5550774335861206	-1.2715955972671509
O	-3.37106990814209	0.12191066890954971	-1.0374659299850464
O	-2.6155099868774414	-0.44380712509155273	-2.065972328186035
O	-1.3251135349273682	-0.885765016078949	-1.8740512132644653
