25

O	-0.612514505382233	2.6213460304885006	19.67597339741814
O	-0.6470279858277053	3.091895843065783	21.07884514716557
O	-0.9176250912605495	4.502628934199733	20.630062750562164
O	-1.4960017971905781	2.455260010703087	22.05195089816528
O	-2.6865622720937568	3.006270576201118	21.877477015605837
O	-3.8167369203533257	2.4125778764449923	21.460304401302054
O	-3.7466193624410167	1.1134470647593173	21.225787653175665
O	-2.890288413054766	0.5685151035798881	22.208519980879274
O	-3.0130359695523548	-0.8523604146672981	22.065039452051508
O	-3.345833672890919	-1.5519798957221353	20.943015560556955
O	-2.8671114358703655	-2.8170626031139214	20.957151807206536
O	-2.9445926413454777	-3.406306226694632	22.132674837104215
O	-3.16743970773012	-2.772620921593154	23.268951855699584
O	-2.9481315163663915	-1.461878057814294	23.231640123219194
O	-1.733733261656738	1.240958944126614	22.62466623119742
O	-3.8687193384488077	0.477508487177788	19.88553110793656
O	-5.091968872037126	0.5013203192486413	19.323706310854583
O	-5.12849652991025	0.5057763844698497	17.944797743572312
O	-6.074748595601465	-0.07612131840216657	17.15677665749726
O	-5.879134674287682	0.0031505444545332772	15.807491526745332
O	-5.449671756675484	1.253345200422449	15.364824790801753
O	-4.732951752424089	2.0124621131431732	16.238630622741994
O	-4.255470070613312	1.4140006994814236	17.348972455006074
O	-3.013902826448543	1.3467691804209696	17.880759157650488
O	-2.8358711935929968	0.470807521827637	18.950030231452963
