18

O	31.09586130499731	-15.286429388157854	4.890263900000281
O	30.097483795616675	-15.265521212590702	5.776165261059509
O	30.011932911022466	-16.28933956632231	6.709066893679496
O	31.58597960794379	-11.493393253575462	3.59705857890328
O	31.614868228398898	-14.000085104606828	4.454954916657157
O	33.08669102782402	-13.016033573398708	2.6251579802631126
O	34.09135712966317	-12.22831092737348	2.386326184289335
O	33.62617070044451	-10.87760693503339	2.777062637882596
O	31.714878264757232	-12.320578546918796	2.3921428833371667
O	32.51065336072746	-14.01335642527036	3.3881833855475145
O	32.524708890750176	-10.524214862126549	3.242600328436275
O	32.08041401227334	-16.269439605441843	4.9948612212991375
O	30.722038072115364	-11.281314527361246	4.434437005508566
O	32.342923619373934	-13.460276004490082	5.312622194477138
O	33.536427440544344	-15.803816907624336	4.226946384995493
O	31.49893972121416	-17.432520860003788	5.339230896363286
O	29.527895378861412	-13.68669908160536	6.353836749643462
O	30.79741111762211	-17.396558320746905	6.542426495792068
