82

O	-2.1066245284237497	-1.088793556140625	3.6333382205062508
O	-2.7170247444237496	-0.644440186140625	4.734236800506251
O	-2.53438308442375	-1.335954946140625	5.923470920506251
O	-1.8468162174237497	2.043890703859375	1.0998607605062507
O	-1.6889316944237498	-0.08845691614062501	2.6646261805062506
O	-0.9053491214237497	0.06861500385937491	0.2471681435062507
O	-0.00024103442374978634	0.566321372859375	-0.5402131434937493
O	-0.1981382844237497	2.032839693859375	-0.4799192164937493
O	-2.2169248444237497	0.9050171533593749	0.2521232735062507
O	-1.2383240268237496	-0.5576034161406251	1.4327727305062505
O	-1.0317552974237498	2.692461243859375	0.17185643750625068
O	-1.2218236059237497	-2.163193886140625	3.7302143205062506
O	-2.3360009544237497	2.631179913859375	2.0529424305062505
O	-0.6657744134237498	0.529645584859375	3.0226068405062505
O	-0.10886469442374969	-2.197217306140625	2.4315081705062505
O	-1.7215828644237496	-3.0613410661406246	4.59798915050625
O	-2.9290484144237494	1.108009974859375	4.92072817050625
O	-1.9408623414237498	-2.567501476140625	5.88218318050625
O	13.028603025576249	10.060191913859375	3.0315875405062505
O	10.16973522557625	9.185478443859376	5.401890430506251
O	7.075597375576249	11.309882563859375	4.807401370506251
O	4.01102722557625	9.543518723859375	6.279747550506251
O	3.00544717557625	6.239043443859375	7.81457898050625
O	0.36785307557625035	4.828846603859375	5.43274623050625
O	-0.7830148484237498	2.026098163859375	7.6913953705062506
O	-0.2622735144237497	-1.6234573261406249	8.639675080506251
O	-1.1484265843037498	-4.881429996140625	6.900576620506251
O	-0.5084875244237498	-8.481159146140625	7.84494907050625
O	3.2388086355762504	-8.918592296140625	8.442603030506252
O	4.235066485576251	-5.403275536140624	7.349602170506251
O	3.86514328557625	-1.6368874261406252	7.486906630506251
O	3.69408840557625	0.792531110859375	4.526231190506251
O	5.32336719557625	4.266159733859375	4.4083967805062505
O	5.054285565576251	7.196750983859374	2.0273887705062505
O	8.625475075576249	8.180742813859375	1.1738517605062506
O	6.89380155557625	6.2584304738593755	-3.5883904994937494
O	5.256605735576251	3.7437430938593748	-1.3018678394937493
O	7.4960967055762495	1.494632949859375	0.7811123385062507
O	6.285184315576251	-1.7794214061406248	2.3773788005062504
O	8.64620997557625	-3.2993892461406253	5.04629554050625
O	8.40411209557625	-6.044885216140624	7.67239526050625
O	7.591633225576249	-5.139730616140625	11.261410190506252
O	11.99625192557625	-9.385226236140625	9.953214160506251
O	7.898753425576249	-11.387050936140625	1.9618546305062505
O	5.20723760557625	-11.595309736140624	-2.057061109493749
O	4.44740568557625	-12.218493236140624	-6.97713804949375
O	3.83790944557625	-8.425945896140625	-7.3472299994937496
O	-0.5377950074237497	-1.7595933361406249	-8.007106699493749
O	2.7951851055762504	-1.243962546140625	-9.791144459493749
O	5.99163024557625	-2.815021266140625	-8.541649559493749
O	9.219206525576249	-3.318586736140625	-1.2991409894937493
O	8.96675612557625	-0.15591560614062505	-3.4028025494937495
O	5.694019405576251	0.489795142859375	-5.212993989493749
O	3.79186801557625	3.351069213859375	-6.799204919493749
O	2.2342547055762503	5.869167923859376	-4.459818479493749
O	-1.6061032454237498	6.047933963859375	-4.956577119493749
O	-2.55454286442375	9.323159603859375	-3.2180282594937495
O	-6.29460057442375	8.632849093859376	-2.7971845394937493
O	-5.48519707442375	5.707684063859375	-0.4007913344937493
O	-7.570744664423749	2.580404663859375	0.09552180310625068
O	-11.00827180442375	1.967946923859375	-1.3772493494937494
O	-12.22839797442375	1.350526263859375	2.198109860506251
O	-11.11345479442375	4.7303374338593756	3.5383627905062505
O	-12.17074617442375	6.470094263859375	0.29737862950625066
O	-9.70776410442375	-9.708912136140624	-1.0770153594937495
O	-11.30080887442375	-6.791800326140626	0.8506104455062508
O	-11.80073597442375	-3.028837906140625	0.3433560525062507
O	-8.87438662442375	-2.294062936140625	2.6821153105062505
O	-6.529285054423749	-4.129128506140624	0.2505545565062507
O	-7.77731998442375	-2.219059706140625	-2.8756343494937493
O	-6.4432448444237505	1.2727701148593749	-3.7069202594937494
O	-7.81602013442375	4.309443273859375	-5.444103559493749
O	-5.55457056442375	5.830984253859375	-8.07944605949375
O	-8.19085598442375	8.420915513859375	-9.04121644949375
O	-12.00393017442375	8.856922063859376	-9.230150849493748
O	-8.83766930442375	1.266543263859375	-8.522685559493748
O	-6.09506289442375	-1.3617354661406251	-8.157605979493749
O	-5.61456849442375	-4.413974206140624	-5.960764719493749
O	-2.93851486442375	-3.058818906140625	-3.6260169494937493
O	-1.6108356114237496	-5.6659789461406245	-1.2171602894937494
O	-0.6193197064237497	-9.229044736140624	-1.7759356294937494
O	0.6383302655762502	-10.189910536140625	1.6808368105062506
