47

O	47.511196575879424	-5.178857682688182	9.105091144478356
O	48.183552995468226	-4.67907087646705	10.352992192143073
O	49.66712068042192	-4.850610854553852	10.354797392818504
O	47.906695173387796	-3.1893046514138845	10.567976012484603
O	46.61712324178476	-2.9878583872818174	9.91157286414234
O	45.53587287585266	-2.4492390268481667	10.618467162075728
O	45.62126678792586	-2.5778834753669377	11.888907535487144
O	44.182471551021294	-2.617846337638859	10.142436121091302
O	42.98564839577672	-2.36853012576632	11.192232025292618
O	43.46784385234911	-2.2859968221507487	12.553376657506396
O	43.38509381730473	-0.9930675340527761	11.130384638817624
O	43.06530514245927	-2.449623129720572	9.264382840740073
O	42.35624657652259	-3.6640213859656146	9.229281015198204
O	42.1646743215108	-4.551934451713063	10.356131987221602
O	42.96825680141153	-5.707131177724861	10.623844956153201
O	42.089389405936096	-6.854366067380826	10.354710049489315
O	40.91011867027813	-7.106790632088699	11.05945039701777
O	39.824707131395634	-7.692915714647879	10.472662497028697
O	39.852919581836716	-7.971838935522741	9.111087703508408
O	40.861585279724295	-7.352514102996975	8.536349479155852
O	42.10118777144321	-7.584313318302946	9.212816543424323
O	40.96704785906443	-4.262557508990567	11.064364020577717
O	40.54158374320494	-3.83880110582974	12.367613179316848
O	41.30837559517629	-4.374718659802971	13.227120847704592
O	39.14339149359741	-3.7586767769731932	12.775130492768566
O	38.6596381163812	-4.959198297900956	12.963506556692748
O	38.495978296298226	-3.007282550470369	13.760294819801508
O	37.14874441120352	-3.081615270448013	13.949866633588801
O	36.4624643036492	-2.267519662862112	14.930847983085634
O	37.158265999138955	-2.619905779604116	16.20027746591699
O	34.803440468552445	-2.017044482828004	14.767541593477485
O	34.57504388209666	-0.5662680434522271	14.709608653995922
O	34.09772108608298	-2.5934296870029385	13.607712744766477
O	33.98125279484334	-2.888531099146023	16.03323433444332
O	36.72968014357162	-4.3679998463416965	14.07510973074266
O	37.38134182587712	-5.061044370583581	13.134970810713487
O	36.88019060691431	-6.212114635692454	12.470645953989468
O	37.27451078198662	-7.059720709971009	13.326380961416953
O	35.471478746034855	-5.997314798743895	12.227320762565672
O	34.930509888813305	-6.5987041724084765	11.09183513578355
O	35.30890987917848	-8.006913847052239	11.06380541788489
O	35.47684080419373	-5.617244915751709	10.057911156480554
O	35.75703528845968	-5.810773935020515	8.745982025523803
O	37.01883822534714	-6.4429898010641535	8.306733920246117
O	38.044741749838444	-5.772501007996466	8.700706763799115
O	38.07981628991099	-5.407565075035056	9.971457349946471
O	36.738070756741386	-5.105582406387732	10.418995566219879
