44

O	-4.619797229766846	0.8136057257652283	0.0052410620264709
O	1.0088896751403809	0.47088944911956787	-1.0102922916412354
O	-0.232558473944664	0.6229051947593689	-0.6192560791969299
O	-3.3656058311462402	0.4789957106113434	-0.13900795578956604
O	-2.779947280883789	-0.5140811800956726	0.7856757640838623
O	-1.5866998434066772	0.12544968724250793	1.523023247718811
O	0.8058470487594604	-0.2453552633523941	1.040438175201416
O	1.7058709859848022	-0.06825445592403412	0.019590696319937706
O	3.1362392902374268	-0.3021896481513977	0.01900137960910797
O	3.8854665756225586	0.7240837812423706	0.699291467666626
O	5.2074151039123535	0.6471785306930542	0.787306010723114
O	5.921725749969482	-0.4351966977119446	0.22540321946144104
O	5.236469268798828	-1.3947372436523438	-0.40260615944862366
O	3.8296549320220947	-1.3181818723678589	-0.49914732575416565
O	-0.45746421813964844	0.2329942286014557	0.562357485294342
O	11.015847206115723	-1.8923101425170898	0.6925827860832214
O	9.717414855957031	-0.7451249957084656	0.38438811898231506
O	8.37268352508545	-1.1360318660736084	0.4979236423969269
O	9.996638298034668	0.5439900159835815	0.04720422253012657
O	9.011474609375	1.503706455230713	-0.18319270014762878
O	7.73050594329834	1.089112401008606	-0.06678440421819687
O	7.391641616821289	-0.24787116050720215	0.28108179569244385
O	-1.9688498973846436	-1.4916069507598877	-0.17875824868679047
O	-3.176873207092285	-2.3572375774383545	-1.2366431951522827
O	-2.4193036556243896	-2.9557228088378906	-2.6326372623443604
O	-4.331847667694092	-1.4988166093826294	-1.5809898376464844
O	-3.634812116622925	-3.772362232208252	-0.16730330884456635
O	-3.998866081237793	-3.3936727046966553	1.1309714317321777
O	-4.210921287536621	-4.407695770263672	2.03047513961792
O	-4.069850444793701	-5.72328519821167	1.6306910514831543
O	-4.366286277770996	-7.052285671234131	2.9576597213745117
O	-3.7049849033355713	-6.095743656158447	0.3515636622905731
O	-3.4750075340270996	-5.045180320739746	-0.5738306641578674
O	-2.7249553203582764	1.1126060485839844	-1.1587157249450684
O	-3.1043596267700195	2.117248058319092	-2.0650217533111572
O	-3.9005565643310547	3.2332003116607666	-1.4871479272842407
O	-5.06916618347168	3.4013521671295166	-1.7459924221038818
O	-4.0753493309021	1.4578849077224731	-3.130464792251587
O	-3.243238687515259	4.173773288726807	-0.5907250046730042
O	-4.135774612426758	5.291022300720215	-0.14798510074615479
O	-3.4893505573272705	6.144333362579346	0.8883289694786072
O	-2.916374683380127	5.739767551422119	1.875393033027649
O	-5.340445041656494	4.5911641120910645	0.5203873515129089
O	-3.5745389461517334	7.577680587768555	0.6605225801467896
