95

O	-6.579149622137255	0.33550206209804	2.38329640062549
O	-2.6779769971372547	-1.67464581590196	-0.7338412973745096
O	-3.6985964921372547	-0.96776319390196	-0.1445748593745096
O	-5.875788822137254	-0.72406303390196	2.30840803062549
O	-4.569374372137254	-0.49856684090196	2.8916405606254902
O	-3.688863662137255	0.20438047409804005	2.0081067406254904
O	-2.041638928137255	-1.46294539590196	1.1445855026254903
O	-1.9950903581372548	-2.4155930859019596	0.1304847586254904
O	-0.6101084121372549	-3.00647236590196	-0.056262402374509635
O	-0.6053557121372548	-4.32933342590196	0.11443890962549039
O	-0.12110380213725458	-4.907360565901961	-1.0032134493745095
O	0.6034404078627453	-4.09269928590196	-1.8496244193745095
O	1.1063025578627452	-2.94415078590196	-1.3822657393745095
O	0.11108918786274513	-2.22976150590196	-0.8758322893745096
O	-3.346330522137255	-0.9259990569019599	1.0896662096254903
O	2.366012917862745	-8.338738365901959	-4.631257079374509
O	2.498371647862745	-6.93177833590196	-3.56376819937451
O	1.5529431178627449	-6.27955555590196	-2.7721589793745096
O	3.807734847862745	-6.45630038590196	-3.4510304993745096
O	3.837128377862745	-5.03900981590196	-3.3843216493745096
O	2.660807407862745	-4.31346605590196	-3.05036797937451
O	1.7541046178627453	-4.99829671590196	-2.3405778393745096
O	-4.848569462137254	0.43475271309804	3.9353558506254904
O	-4.168250802137255	-0.31130178650196	5.37132223062549
O	-2.823747636137255	0.60683741809804	5.59127532062549
O	-4.897423862137255	0.04005296609803999	6.564239710625491
O	-4.337934782137255	-1.95455181590196	4.94434943062549
O	-3.4999748121372547	-2.87438849590196	5.41377517062549
O	-2.786131694137255	-3.83295910590196	4.51704360062549
O	-2.2820337431372546	-4.09492607590196	3.04596414062549
O	-2.5081535694372548	-6.13100816590196	2.51626179062549
O	-3.7708663621372547	-3.5883722959019604	3.11393512062549
O	-4.698857842137254	-2.66338352590196	3.84670007062549
O	-5.904443542137255	-0.75592417690196	0.9353144846254904
O	-6.877813322137255	-1.29085222090196	0.01909367062549039
O	-7.302512172137254	-2.4401392759019602	0.9091905826254905
O	-6.373662392137255	-3.2244592659019604	1.1651749276254904
O	-8.145338722137256	-0.55518784990196	-0.2472278943745096
O	-7.752736762137255	-1.87801218590196	2.11562212062549
O	-8.179153402137255	-2.26616339590196	3.35482255062549
O	-8.003192032137255	-1.72588263590196	4.65767049062549
O	-7.6753131821372556	-0.6132644549019599	5.101289090625491
O	-9.657427662137255	-1.97625181590196	2.96945029062549
O	-8.991984722137255	-2.2904288659019603	5.55877830062549
O	-14.675090502137255	4.35138028409804	-3.60124410937451
O	-13.235487802137255	0.94052091409804	-2.8014351793745096
O	-12.618671102137256	-0.53517972390196	0.5756253456254904
O	-9.860010312137256	1.39693489409804	2.47853063062549
O	-7.544770302137255	2.99240911409804	-0.06554974137450964
O	-5.295160572137254	4.94402426409804	2.2315854006254905
O	-3.7427041521372546	4.87185515409804	5.63263347062549
O	-0.7634316621372548	6.28314609409804	7.36519509062549
O	0.5567156378627454	7.45157845409804	10.76146148062549
O	0.033156067862745164	9.480396684098041	4.59050218062549
O	-3.541998492137255	10.00950617409804	3.5522297406254904
O	-4.864670332137255	8.69425508409804	0.1971022833254904
O	-8.595086622137254	8.292052694098041	-0.3605684793745096
O	-10.298781492137255	6.1134070340980395	-5.4254576393745095
O	-9.217053262137254	6.67436819409804	-9.01690296937451
O	-5.466976552137255	7.115635004098039	-8.86412226937451
O	-5.582381642137255	2.1350311940980404	-7.993296459374509
O	-1.8659806051372547	2.5110910440980403	-8.78370125937451
O	-0.5692192521372548	5.43317533409804	-6.742157949374509
O	3.101780527862745	4.37101295409804	-6.78471786937451
O	2.4765157478627455	0.92636613409804	-5.2606340293745095
O	-0.0803524721372546	2.49746851409804	-2.6775559393745096
O	2.519646637862745	5.04633520409804	-1.7344349393745095
O	5.377305677862745	2.5139621240980397	-1.3368952093745095
O	3.2218490978627456	0.71670438409804	1.1494039146254904
O	1.824943727862745	3.65396657409804	3.02574858062549
O	6.528379757862744	2.02391409409804	4.759469490625491
O	4.148290637862745	2.9804491340980404	7.52581137062549
O	5.2178548178627455	6.59482111409804	7.60913489062549
O	6.943431177862745	-0.42542225690196	9.41876734062549
O	4.000841627862746	-2.65656449590196	10.26546978062549
O	2.6139615778627454	-5.53234338590196	8.30145951062549
O	4.185881257862745	-8.743189755901959	6.98924032062549
O	2.661710997862745	-12.231386025901958	6.39964228062549
O	2.080506477862745	-12.62873042590196	0.21019590272549038
O	5.452745687862745	-8.336480165901959	0.7740012116254904
O	4.499248377862745	-4.82524389590196	0.054537738625490384
O	4.104591337862745	-4.48841167590196	3.5626739906254903
O	1.6091708778627454	-7.58575230590196	3.1659886006254903
O	-2.0019662431372547	-6.45451057590196	3.8073293806254904
O	-4.090580582137255	-6.30283785590196	0.21137137792549038
O	-3.2720647171372548	-4.15176217590196	-2.78490098937451
O	-2.668601424137255	-6.13161874590196	-5.76913216937451
O	-1.3349952821372548	-4.56251821590196	-8.79624491937451
O	1.9712321078627455	-6.10992840590196	-9.57362421937451
O	5.570124247862745	-1.97175436590196	-11.78892881937451
O	7.818223997862745	-5.028700125901961	-8.46101727937451
O	10.127706297862744	-6.08059433590196	-5.70784826937451
O	10.326130297862745	-5.40335790590196	-2.06143824937451
O	10.215015597862745	-5.89272897590196	3.54795000062549
O	11.999075097862745	-4.93675204590196	8.228747650625492
