82

O	0.18557831582456208	-3.6535969776140353	-0.9322164105438591
O	-3.2535034041754383	3.1437237423859647	0.310243661456141
O	2.323265315824562	-1.044677557614035	-1.121593792543859
O	3.2540419958245623	-1.995596507614035	-1.042280666543859
O	-1.277242698175438	3.469604552385965	-0.760732117143859
O	2.0417415758245623	0.26127354438596495	-0.652746203543859
O	2.449671675824562	3.018808592385965	-1.599573232543859
O	2.2149055158245616	2.8517216423859653	-0.281402738543859
O	0.803756495824562	2.434013812385965	-0.282537192543859
O	2.8361040358245617	1.5046380503859649	-2.142679658543859
O	-1.9422764441754379	2.646597892385965	0.03618102045614102
O	0.04862757582456201	-1.0579727276140352	-0.738146255243859
O	1.333598105824562	-2.9969411176140355	-1.167498777543859
O	1.1581285458245618	-1.696321707614035	-1.072935682543859
O	2.6269139858245616	-3.200505927614035	-1.194124545543859
O	-2.8471523641754377	6.942839112385965	-0.46418078054385903
O	-2.417059654175438	5.299367852385965	0.03950029545614098
O	-3.553684934175438	4.476974792385965	0.13598829845614102
O	-1.115004831275438	4.725002602385965	-0.072639093543859
O	0.06283261582456201	3.216703132385965	-1.065324286543859
O	1.306644485824562	3.8374814723859645	-1.470253415543859
O	0.5763456558245621	1.0111831353859648	-0.496432528543859
O	2.121713685824562	0.3571530733859649	0.566020321456141
O	-1.016182468375438	-1.731922497614035	-0.9686357545438591
O	-1.027650116975438	-3.0357758076140353	-0.7013803935438591
O	2.677335485824562	-0.271519197614035	-14.84089241854386
O	5.583434695824562	1.3518923083859649	-12.94443331854386
O	4.029853355824562	4.087297992385965	-10.847350018543858
O	0.9890515458245621	5.2715788323859645	-8.97194048854386
O	1.6088692958245618	4.838280512385965	-5.27614805854386
O	-1.459879133175438	6.379681632385965	-3.5983306085438587
O	-5.052487214175438	6.775469522385965	-3.262870918543859
O	-7.234039554175438	5.9754339623859645	-0.37361006054385903
O	-10.982028444175437	6.157634272385964	0.05984509545614103
O	-12.280732314175438	4.952508672385965	-3.381426518543859
O	-9.223596744175438	2.798217452385965	-4.157031548543859
O	-6.019736214175437	3.295790392385965	-5.930846358543859
O	-2.840517064175438	1.283300811385965	-5.675241788543859
O	-0.12165997717543797	0.9762379133859649	-8.35789128854386
O	3.3900085658245622	-0.4509242776140352	-8.39615792854386
O	3.5781854658245624	-2.8622904376140355	-11.298327218543859
O	3.760297395824562	-6.364650827614035	-7.021288188543859
O	1.200067475824562	-3.9047792776140353	-5.694811398543859
O	-2.1100897141754382	-3.6308433976140355	-7.537319188543859
O	-5.311423834175438	-2.156345827614035	-6.161264628543859
O	-8.199556044175438	-0.9689856076140351	-8.34332301854386
O	-0.24551180417543794	-13.168386957614034	9.35584178145614
O	-0.857229080175438	-8.385575007614035	7.30435819145614
O	0.026254345824562098	-7.596891707614035	3.704452251456141
O	-0.014556334175438002	-10.808858757614034	1.5944213814561408
O	-7.769395604175438	-5.714372977614035	-9.72384944854386
O	-6.289386804175438	-7.007458757614035	-6.45096885854386
O	-2.6653597241754383	-8.153998537614035	-6.6183770185438595
O	-0.651141124175438	-8.065530917614035	-3.4184957985438587
O	2.994623435824562	-8.268760717614034	-2.393086998543859
O	4.946793185824562	-4.987760887614035	-2.845241958543859
O	6.343688875824562	-3.634123797614035	0.41946275145614087
O	9.254350785824561	-1.481593547614035	-0.608935493543859
O	9.275418285824562	1.1264614223859648	2.129623481456141
O	5.642352855824562	2.375752522385965	1.388415501456141
O	3.408364295824562	3.595006872385965	4.180257481456141
O	4.3084674358245625	3.991799262385965	7.699085441456141
O	3.032403415824562	7.6305519423859645	7.52166328145614
O	5.564579165824562	8.528080032385965	4.747905511456141
O	8.410237425824562	6.406598122385964	6.116375251456141
O	8.194249755824563	7.836566502385964	9.636701781456141
O	11.208631085824562	10.890537942385965	6.0391222014561405
O	-4.403481834175438	5.008281602385964	10.637716581456141
O	-0.6473224671754381	5.121487272385965	9.832649381456141
O	-1.485859180175438	5.894229982385965	6.222933741456141
O	-2.923013594175438	2.363433802385965	6.028018561456141
O	0.08896441582456194	0.569860820385965	7.608032121456141
O	3.064716155824562	-0.5313652476140351	5.472625331456141
O	6.797842885824562	-1.015360137614035	6.033141411456141
O	8.319796775824562	-4.233016377614035	4.715315061456141
O	2.011131305824562	-4.798753137614035	8.14868957145614
O	-1.5905714481754378	-3.6379277776140357	8.015437141456141
O	-1.8539897451754381	-2.906455457614035	4.399345501456141
O	-5.344702494175438	-1.779780237614035	3.3387746414561406
O	-8.780121004175438	-3.2921089176140352	4.175653691456141
O	-10.970512374175438	-0.920149057614035	2.1137168314561414
O	-2.382068304175438	5.516595392385964	15.489879581456142
