25

O	62.769	11.147	3.248
O	57.491	9.196	1.075
O	60.243	11.262	5.578
O	61.173	12.093	6.186
O	56.531	8.689	3.251
O	58.853	10.91	5.985
O	54.742	9.402	6.075
O	55.954	10.002	6.443
O	56.797	9.75	5.361
O	53.565	9.462	7.027
O	57.075	9.582	2.337
O	60.241	10.036	3.384
O	61.964	11.365	4.295
O	60.756	10.83	4.355
O	62.285	12.145	5.414
O	56.633	5.233	1.029
O	56.806	6.947	1.56
O	57.368	7.872	0.69
O	56.394	7.361	2.826
O	56.12	9.095	4.447
O	54.818	8.849	4.858
O	58.096	10.134	5.178
O	58.475	11.425	7.03
O	61.012	9.778	2.308
O	62.304	10.332	2.216
