17

O	-31.716	-9.043	13.716
O	-35.883	-9.919	11.685
O	-31.908	-7.674	13.321
O	-30.998	-6.757	13.883
O	-32.729	-6.886	12.479
O	-34.87	-9.848	12.639
O	-30.007	-7.1	14.731
O	-30.728	-9.391	14.564
O	-29.94	-8.404	15.006
O	-31.329	-5.519	13.357
O	-32.388	-5.613	12.497
O	-32.532	-10.055	13.212
O	-33.524	-9.905	12.22
O	-37.207	-9.753	12.067
O	-37.529	-9.524	13.391
O	-36.529	-9.485	14.347
O	-35.2	-9.648	13.978
