17

O	-31.85339584345179	-8.988541552822877	12.148866907497826
O	-35.81896936548326	-10.007044674790095	10.006912988249947
O	-32.32281348562075	-8.501914734193072	13.328553325124556
O	-31.783505191115434	-7.4390722734873425	14.03949828555567
O	-33.65164950150288	-8.481325454285562	13.758318366341356
O	-35.381668946708295	-9.214517092455381	11.059774885428737
O	-30.49223194863292	-7.144037762288067	13.746735322672954
O	-30.56477294630657	-8.613332740949698	11.965309562842558
O	-29.942764602094332	-7.647396686937715	12.635135554442368
O	-32.814324319090645	-6.651381311194544	14.322431215704299
O	-34.003025638877304	-7.194952851418343	14.031053206875008
O	-32.813994660802265	-9.195209689380295	11.093796236738429
O	-34.09525093126343	-9.55659971784872	11.483302846958873
O	-37.01312802000155	-10.722604670632228	10.027072832797892
O	-38.02582164329104	-10.16857806831528	10.752800522686032
O	-37.675189862519744	-9.426573726919251	11.87029588927426
O	-36.41068540771163	-8.911925514651916	11.955521190456869
