17

O	-11.360086312190308	7.9914974726656895	8.719307671503383
O	-11.214899950316557	8.689935984411031	9.836927548997277
O	-12.397978623354312	7.899490706188349	10.427995421945548
O	-12.17233435628359	7.1513881979018405	11.490491285092599
O	-11.04724600690803	6.566280982804859	10.701024199366032
O	-9.922326174751877	7.434229738830361	11.024724326975255
O	-9.927817118491035	8.788327133858896	10.518899292261843
O	-8.801266400048336	9.773380193044146	10.682053117670895
O	-8.369099977489213	10.25558681135871	9.417556105815107
O	-7.446130174256139	11.310011416873845	9.345058327923857
O	-7.104965912470025	11.821619245825293	10.552845515662712
O	-7.9117914377372776	9.987145916260358	11.62027581040947
O	-6.871607039480771	10.857138713318637	11.47322037357504
O	-5.694388879062736	11.360650351099865	12.135014585901514
O	-5.744990499083867	11.137891207551274	13.528446853486024
O	-4.381503468913802	11.043906843537863	11.589640372819767
O	-5.375121169927845	12.814899566539562	12.183966501129484
