17

O	1.4356106519699097	2.039487838745117	-0.02118944376707077
O	2.1730024814605713	0.9943773150444031	-0.020366452634334564
O	3.4309616088867188	1.0290758609771729	0.6421831846237183
O	4.173396587371826	-0.019579317420721054	0.6446112990379333
O	3.7391157150268555	-1.2294566631317139	-0.01946890912950039
O	2.595853567123413	-1.3191533088684082	-0.6430252194404602
O	1.669878363609314	-0.21208417415618896	-0.7195817828178406
O	0.3624907433986664	-0.6067488789558411	-0.1546134352684021
O	0.18850699067115784	-1.6944122314453125	0.6723331212997437
O	-1.0816137790679932	-1.96835458278656	1.1408365964889526
O	-2.168734073638916	-1.1791043281555176	0.7992278933525085
O	-0.7283951044082642	0.16525280475616455	-0.4836805760860443
O	-2.0080509185791016	-0.08398980647325516	-0.030605142936110497
O	-3.1725902557373047	0.7833356261253357	-0.4145393967628479
O	-2.6338212490081787	1.8634421825408936	-1.330299973487854
O	-3.768946886062622	1.4505720138549805	0.809287428855896
O	-4.206664562225342	-0.012660408392548561	-1.1606110334396362
