23

O	0.7091503739356995	-0.09305853396654129	3.3542518615722656
O	-0.24363131821155548	-1.3471945524215698	2.793133020401001
O	-1.1854019165039062	-1.039137601852417	3.987423896789551
O	-1.0998080968856812	-0.6665076017379761	1.7329039573669434
O	-0.44980567693710327	-0.11665786802768707	0.7827068567276001
O	-1.318366289138794	0.4854208528995514	-0.07419586181640625
O	-2.6249992847442627	0.26873403787612915	0.41754889488220215
O	-2.407581329345703	-0.46580061316490173	1.5603523254394531
O	-3.748337507247925	0.7504847645759583	-0.2108350247144699
O	-3.6350042819976807	1.4538875818252563	-1.3291916847229004
O	-2.404806613922119	1.6734410524368286	-1.8147385120391846
O	-1.2512456178665161	1.2165743112564087	-1.2295945882797241
O	-0.20503896474838257	1.6313469409942627	-1.989220142364502
O	-0.747376561164856	2.35693097114563	-3.0599818229675293
O	-2.0763516426086426	2.3685154914855957	-2.933178186416626
O	0.9897199869155884	-0.06873106956481934	0.4916923940181732
O	1.6140226125717163	-1.4700363874435425	1.0942009687423706
O	2.943425416946411	-1.697137475013733	0.7640669941902161
O	3.297255277633667	-1.744730830192566	-0.8126196265220642
O	2.462350606918335	-0.4198913276195526	-1.2460825443267822
O	0.9757936000823975	-0.738474428653717	-1.036086082458496
O	4.685053825378418	-1.0214159488677979	-0.6804800629615784
O	5.720983028411865	-0.4832569360733032	-0.5620768666267395
