25

O	10.684459435191284	56.249196797822755	-0.8954759255257865
O	9.340570614489717	55.82477690084586	-0.2798038296131262
O	9.412637450129125	55.69132472614829	1.094841333577953
O	8.50442498894867	57.04246680458934	-0.3621440184125533
O	7.302469444262023	57.11733267104094	0.29777636143317565
O	6.7333187866296615	58.29909837482612	0.0890964893264472
O	7.745015261784896	58.97682187466473	-0.5025559270196032
O	8.77359724660225	58.24939333360885	-0.9204356038078343
O	7.630902620338276	60.35682072739723	-0.6732451931341084
O	6.534240801698273	61.055748212524755	-0.37603336183595437
O	5.527699739266941	60.369735415259214	0.22639371945875797
O	5.626307488846946	59.004125621206825	0.4789307102146356
O	4.4989037574877955	58.571677334827775	1.1218159754708483
O	3.699626173774212	59.704410035745205	1.2329856444961669
O	4.340105128992998	60.78590538034239	0.7336326802884292
O	6.577287804500491	55.976585403851864	0.7781423494770974
O	6.871769436908575	55.77327472847645	2.1784939391592975
O	7.000295121663115	54.34755923067202	2.6072586467288534
O	6.696840805894684	53.54540316578046	1.55428137099591
O	7.355087454992747	53.56615206930999	0.3807506617012236
O	6.977120660503919	54.90419758748308	-0.13305653877975954
O	5.2685347605051565	54.195282564744105	1.351274362175789
O	4.6038095603239535	53.89027030299376	2.6282518554478824
O	5.147078853575892	52.3961634846221	2.6454598890264025
O	5.856290448197682	51.50397653583747	2.3265727354185133
