20

O	-4.0275983810424805	-0.6310117840766907	0.2074061930179596
O	-1.740891456604004	-0.15772296488285065	0.1413959115743637
O	0.6111608147621155	0.30201494693756104	0.02948220819234848
O	4.001021862030029	1.1397513151168823	-1.3754966259002686
O	2.3687775135040283	-1.013352632522583	-1.109919548034668
O	-0.7163770198822021	1.1204172372817993	1.8462601900100708
O	-1.8728413581848145	0.5385329127311707	1.322374701499939
O	-3.182382106781006	1.4150267839431763	3.2271735668182373
O	-3.083414077758789	0.6664299368858337	1.9730273485183716
O	-4.182749271392822	0.07208268344402313	1.407994270324707
O	-5.083498001098633	-1.1506831645965576	-0.2520168721675873
O	-2.8366963863372803	-0.7343869805335999	-0.39616456627845764
O	-0.5019197463989258	-0.2720872759819031	-0.4976091980934143
O	1.9368449449539185	0.2001388669013977	-0.6208638548851013
O	2.768500328063965	1.2913225889205933	-0.7575557827949524
O	4.437439918518066	-0.07315665483474731	-1.8665353059768677
O	5.7171831130981445	-0.15690597891807556	-2.4908559322357178
O	3.604656934738159	-1.1681573390960693	-1.7302061319351196
O	1.2826060056686401	-2.3919973373413086	-0.9204978346824646
O	0.5001762509346008	1.0037448406219482	1.211700439453125
