20

O	-12.46	1.853	14.204
O	-12.1	2.545	11.947
O	-11.777	3.211	9.634
O	-10.229	3.163	6.177
O	-12.525	2.08	7.454
O	-11.901	4.909	11.37
O	-12.088	3.93	12.375
O	-12.327	5.748	14.347
O	-12.283	4.277	13.812
O	-12.458	3.235	14.673
O	-12.653	0.923	15.008
O	-12.292	1.553	12.883
O	-11.929	2.208	10.607
O	-11.582	2.886	8.18
O	-10.441	3.403	7.519
O	-11.164	2.404	5.483
O	-10.963	2.165	4.127
O	-12.298	1.858	6.104
O	-13.979	1.408	8.185
O	-11.729	4.547	10.044
