17

O	-14.398	11.829	30.667
O	-15.196	10.963	31.521
O	-15.241	9.485	31.122
O	-15.613	9.315	29.782
O	-16.311	8.967	32.081
O	-16.655	7.521	31.774
O	-17.364	9.975	31.912
O	-16.647	11.29	31.434
O	-17.072	12.484	32.337
O	-17.701	13.612	31.981
O	-17.944	14.298	33.121
O	-18.523	15.5	33.373
O	-18.634	15.998	34.685
O	-18.133	15.233	35.731
O	-17.53	14.014	35.414
O	-17.44	13.59	34.14
O	-16.918	12.473	33.641
