70

O	0.20370684389811267	3.8816670523018866	-0.6503058993377361
O	0.1259064188981126	2.567409782301887	-0.9812768103377361
O	-0.7184642523018874	1.8433926563018868	0.011088412662263902
O	0.18260174489811265	0.9694097023018867	0.642017592662264
O	-1.7354481181018873	1.2054858953018868	-0.8787969483377361
O	-1.7192630081018874	-0.1727235776981133	-0.3407815093377361
O	-1.4945435441018873	1.395225746301887	-2.2794102773377363
O	-0.31370269610188734	2.156383993301887	-2.284905717337736
O	-0.6563344823218874	3.1095131123018867	-3.3516012573377365
O	0.24840315689811265	3.1056038123018865	-4.293829077337736
O	-0.34633495010188736	3.3789664623018867	-5.456583517337736
O	0.2787087138981127	4.101667422301887	-6.492591717337737
O	-0.5123847051018874	4.1928367323018865	-7.600229337337736
O	-1.8479644881018875	4.350040202301887	-7.411735887337736
O	-2.4489572981018872	3.808994442301887	-6.311974537337736
O	-1.6432087301018874	3.717849662301887	-5.212489457337736
O	-1.7826962681018874	3.5446575123018866	-3.882874147337736
O	-0.7033612423018873	-2.9429169276981133	9.117303972662265
O	1.6186377618981127	-0.6560492876981132	7.051526222662264
O	4.983046431898113	-0.7789020276981131	8.693054682662265
O	8.875087871898113	5.090352732301887	6.0800869326622635
O	1.5428720418981126	13.126923972301887	0.420374662662264
O	1.2451921018981125	9.537658422301886	1.731985472662264
O	4.114805631898113	8.884617752301887	4.193359292662263
O	4.980096371898113	5.511067482301886	2.739912852662264
O	5.731407341898112	7.342612122301887	-0.5755825523377361
O	8.149191211898113	9.823983712301887	1.001503872662264
O	11.088105151898112	8.323704992301888	-1.0042789187377361
O	9.290754781898112	9.615059172301887	-4.096148177337736
O	0.5168082418981127	-7.130335537698112	6.923982542662263
O	2.950527091898113	-5.2553699776981135	4.567979802662264
O	6.225759471898113	-2.2315099376981133	0.420230232662264
O	7.431215421898113	-0.33256889769811315	-2.709607627337736
O	10.554496651898113	0.7135165683018868	-0.9205848443377361
O	0.2901250418981126	-10.909975927698113	3.375625372662264
O	0.48126099189811267	-7.656167477698114	1.432698252662264
O	3.264719041898113	-7.862234957698114	-1.1809948990377361
O	4.4176184918981125	-5.053006347698113	-3.530610017337736
O	5.623360021898113	-6.319199657698113	-6.926147057337737
O	7.035760411898113	-2.8750113476981136	-7.765220397337736
O	10.299310551898113	-2.622232977698113	-5.832111617337737
O	12.332906951898114	0.5580184083018868	-5.695887277337737
O	-1.6486925381018875	-12.797369827698112	-0.6357827013377362
O	-2.727607958101887	-9.251543727698113	-1.447289353337736
O	-0.5831276055018874	-7.923905927698113	-4.298969507337736
O	0.1295611468981126	-4.297630407698113	-4.956021537337736
O	2.276144861898113	-2.306163427698113	-7.403616587337736
O	1.2846861018981128	-4.361281817698114	-10.410831337337735
O	-0.039320615101887335	-1.440872287698113	-12.572521427337735
O	3.1259275318981126	-0.768910847698113	-14.657659827337735
O	-6.528770508101887	-10.769503727698114	-4.831370377337736
O	-5.050006298101887	-6.626990207698114	-8.234650797337736
O	-12.116896748101887	-8.113929477698113	-6.124129117337736
O	-9.786104378101887	-5.747303527698113	-4.373031267337736
O	-10.583972978101887	-2.306019977698113	-5.680289687337736
O	-12.471417448101887	-0.09091236769811317	-3.3512506973377363
O	-10.144046258101888	2.167791614301887	-1.259865027337736
O	-11.469178848101887	5.738663582301887	-1.3050759733377362
O	-9.390326388101887	-1.3673376876981131	2.4414900726622637
O	-9.495342428101887	2.079602563301887	4.081619062662264
O	-7.3043203481018875	4.626056712301887	5.7914523426622635
O	-8.237746088101888	6.591209012301887	8.921099672662265
O	-7.8212299381018875	10.657261962301886	3.985098012662264
O	-4.710287638101887	9.240645102301887	2.4477111026622635
O	-2.013739328101887	8.047987312301887	4.861689042662264
O	-1.1674309751018872	4.347738072301887	5.061214762662264
O	2.2880175418981126	4.415584912301886	6.712477832662263
O	-5.559741058101888	0.4265292423018867	8.224398992662264
O	-3.0410677081018873	1.180356185301887	10.980772272662264
O	0.4463330518981127	2.748214922301887	10.520881272662265
