17

O	-14.12905468691951	11.901183220457593	31.696240158871717
O	-15.194900693046975	11.32019114727279	31.088550004331793
O	-15.021772871538994	9.839818313348806	31.066769394982003
O	-14.894450871501029	9.538370311912798	29.700476609337343
O	-16.285850865311986	9.38682115842797	31.722496150606332
O	-16.700156323629724	8.326801735436828	30.7770366158061
O	-17.210553387390274	10.443514645287923	32.012458290710676
O	-16.534601243083785	11.579056450881982	31.53558231994059
O	-16.847500603114316	12.512161145618485	32.628788911863225
O	-17.4109867149523	13.598726095202462	32.17247897845053
O	-18.25642418075932	14.060187704992693	33.095911226193856
O	-18.504941481061138	15.432597636944227	33.298443643574856
O	-19.4544702606095	15.643347992194144	34.25499009957251
O	-19.46191902933292	14.815385641690469	35.331298108659226
O	-19.049667354575462	13.52093442306662	35.19772229384827
O	-18.10370861565574	13.32373802678965	34.23196807436244
O	-17.20509061599661	12.378269203187607	33.89152195388151
