74

O	1.9561630000416663	-2.536526859639584	7.807552582020834
O	1.6175968700416665	-2.4242868496395835	5.301029002020834
O	0.9252302700416664	-2.5928219896395834	4.030798332020834
O	-1.1859262487583335	-1.8970752396395836	3.420955962020833
O	-2.6046348599583338	-2.6586346396395837	1.2441483490208334
O	-3.1119107699583335	-2.6261554496395836	-1.0092837879791665
O	-5.052679439958334	-3.8380339596395836	-1.7573099779791665
O	-1.0077506059583334	-1.8666014596395837	-0.3340156309791667
O	-0.8872445019583335	-1.9655740696395836	9.640262022020833
O	-0.14667804995833356	-2.6045828696395836	8.695577402020835
O	1.1861762900416664	-2.5086129796395835	9.138688052020834
O	1.1508379600416663	-2.5445847796395835	6.621781302020834
O	2.5001347700416665	-1.6206446196395836	5.108953802020833
O	-0.4118424229583335	-2.6703410596395836	4.2935747620208335
O	-0.6751206949583335	-1.6926088896395837	2.1672714720208335
O	-1.4032322119583336	-2.0892558296395833	0.9434228730208334
O	-3.5442851099583335	-2.5731742596395835	0.31401335702083333
O	-3.9257090499583334	-2.9437233796395836	-2.081210567979167
O	-3.4185852399583334	-3.068565879639584	-3.353586547979167
O	-2.1358447229583337	-2.5722044196395837	-3.588711757979167
O	-1.8023065029583334	-2.7426011396395835	-4.8037517779791665
O	-1.2822568615583336	-2.6834065296395835	-2.5448125579791667
O	-1.7117111719583336	-2.642670419639584	-1.2601810679791665
O	0.6148812600416664	-1.4288362496395837	1.9175754520208335
O	1.2007874100416664	-0.5100327956395835	0.5850718460208333
O	1.3576191000416666	-1.7664006896395836	2.9983632020208333
O	3.8059527600416665	0.09361747036041648	-8.436494207979166
O	3.717605000041666	-0.23232678293958353	-4.756032537979166
O	4.538772430041666	-3.516529559639584	-2.898232067979167
O	4.794722620041666	-3.7225434996395834	0.8625343620208334
O	7.048107270041667	-5.321898559639584	3.542626862020833
O	8.031052100041666	-1.6725795596395836	4.509987812020833
O	9.738515100041667	-0.9321513536395835	1.2963517720208333
O	9.033007200041666	8.326784960360415	2.5707867420208332
O	5.373624500041666	7.383806510360417	2.389382252020833
O	3.2707804000416667	8.270466100360416	5.386075472020834
O	0.12022834004166638	7.276199440360417	7.359565012020834
O	1.8224756300416667	4.162310250360417	8.262457622020834
O	1.8372572400416667	2.8996438803604163	4.729611032020833
O	-1.9499658029583335	3.2703585703604166	4.577717992020833
O	-4.260220759958333	0.3624429893604165	4.136111332020834
O	-6.771320299958334	0.8165681703604165	6.931031282020833
O	-9.198955259958334	-1.7253663596395836	5.647869822020834
O	-9.100688399958333	-0.7431741606395835	2.018603992020833
O	-12.231232099958333	-0.5508881566395836	-0.12854493997916666
O	-11.630485499958333	3.1072258203604166	-1.2297437079791667
O	-10.850748779958334	4.234027320360417	2.2882697320208334
O	-7.794948179958333	4.472068930360416	4.467763422020834
O	-4.966813049958334	5.678262270360417	2.271398702020833
O	-1.8876030709583336	4.4799755303604165	0.42115869402083334
O	-2.570887409958334	2.2027814303604165	-2.541986197979167
O	-0.6697609709583335	1.9880075803604162	-5.784577667979167
O	-1.1210636269583336	-6.676147809639583	-8.126288957979167
O	1.6488438400416663	-4.9938532296395834	-5.939297507979166
O	3.4551238500416668	-8.343035519639583	-5.8068660879791665
O	0.5465600500416665	-9.854619209639583	-3.920005577979167
O	1.2139590100416666	-7.253323019639583	-0.9714787079791667
O	4.994410560041667	-7.7478619096395835	-0.9994682379791666
O	4.764566710041667	-10.196911869639584	1.9846891720208335
O	1.8937820400416663	-8.200920009639583	3.645405642020833
O	-1.8689378199583335	-7.827574929639583	3.3480000420208333
O	-3.130574999958333	-11.003117859639584	1.3764187620208335
O	0.4678678700416665	-12.160620659639584	0.8113527050208333
O	0.7244094400416665	-12.585500359639584	4.602501212020834
O	8.686766650041667	-3.6043488196395836	-5.386871807979166
O	8.710303310041667	0.1375767693604165	-5.633015537979166
O	6.683518980041667	5.256987370360417	-7.822447437979166
O	-5.602017589958334	7.8642009303604175	7.2041033920208335
O	-9.289153199958333	8.097085380360417	-5.563792057979167
O	-5.234185959958333	4.575350660360417	-6.9879407679791665
O	-5.359327059958334	5.746969790360417	-3.317813877979167
O	-3.6737605699583336	8.834999140360416	-1.9371725979791667
O	4.226928140041666	9.827761240360417	-3.948804727979167
O	8.013509370041666	9.499814690360417	-4.5048996179791665
