17

O	-17.747	15.006	37.018
O	-17.986	15.151	35.564
O	-17.51	14.202	34.699
O	-17.998	14.235	33.387
O	-17.579	13.302	32.45
O	-16.57	13.229	35.071
O	-16.151	12.299	34.12
O	-16.64	12.323	32.798
O	-16.253	11.361	31.804
O	-14.777	10.966	31.79
O	-14.073	11.825	30.876
O	-14.895	9.471	31.359
O	-15.206	9.321	29.908
O	-15.998	9.019	32.26
O	-16.401	7.593	31.947
O	-16.964	10.05	31.93
O	-18.155	9.993	32.784
