17

O	-18.47610568978349	15.566129162255361	36.14214000460866
O	-18.742490120649443	14.235411633282439	36.58015561052971
O	-18.24118856687994	13.219448419821548	35.791070684789545
O	-16.997615418067948	13.380783734948103	35.25057530718921
O	-16.43751218521674	12.26112220422113	34.63314946552596
O	-19.048002680293358	12.290194289476203	35.20165135007095
O	-18.52683773231257	11.395898251998656	34.26917298068694
O	-17.18745048780826	11.224908580927742	34.05775340510449
O	-16.711584367601258	10.593551216163398	32.87683121592083
O	-15.406121866780094	9.931900901165971	32.78699430151723
O	-14.474726254247479	10.750437039390752	33.37967230785281
O	-15.033075473798716	9.739764409726323	31.38920849232175
O	-15.298021794165741	8.658055813672473	30.663920443833657
O	-15.538144197445877	11.08044982720974	31.08152892838791
O	-14.554477889788815	12.109063416418627	31.622398404349575
O	-16.695155016148632	11.56341446799627	31.87290165809828
O	-16.688527523750658	12.893352092450199	32.377265008984956
