17

O	-43.79826736450195	5.256109237670898	-26.536306381225586
O	-42.8784294128418	6.274091720581055	-25.979637145996094
O	-41.56012725830078	6.2742156982421875	-26.350421905517578
O	-40.80756378173828	7.4090118408203125	-26.024150848388672
O	-39.468414306640625	7.497690200805664	-26.374622344970703
O	-40.95296859741211	5.201835632324219	-27.02129364013672
O	-39.604671478271484	5.298558235168457	-27.364234924316406
O	-38.84075927734375	6.438913345336914	-27.04268455505371
O	-37.459407806396484	6.58304500579834	-27.409221649169922
O	-36.59109115600586	5.334516525268555	-27.260862350463867
O	-35.988243103027344	5.338214874267578	-25.954936981201172
O	-35.611671447753906	5.535008430480957	-28.45888328552246
O	-34.58715057373047	6.583950042724609	-28.185583114624023
O	-36.57872772216797	5.905514717102051	-29.536026000976562
O	-35.85052490234375	6.282414436340332	-30.80941390991211
O	-37.256858825683594	6.981363296508789	-28.837661743164062
O	-38.41545867919922	7.4867353439331055	-29.58148956298828
