31

O	11.127800103144526	-19.815411540208068	-21.91499923331012
O	10.950004149189795	-21.104982216894495	-21.475573298857814
O	11.696072989308675	-22.22894437705372	-21.25792909439209
O	11.458323658465602	-23.5193372664211	-21.533805208453032
O	12.62838846989889	-24.380755270663414	-21.610258091685264
O	12.555304997903404	-22.30059345008846	-20.25161233782532
O	13.75615570620797	-23.139725935966258	-20.286987340267356
O	13.857915229996223	-24.386308410877806	-20.927398994336293
O	14.433520976120047	-25.649722105751696	-20.552063830555053
O	15.775994469387104	-25.816939987947443	-20.35126324574788
O	13.535004642535451	-26.583115253960404	-20.194487498901214
O	12.249249941025244	-26.35664742395084	-20.1693691715849
O	11.618447424448988	-27.44353248456628	-19.759906636056307
O	12.56553604797934	-28.34350798535728	-19.5402315305002
O	13.818915848867844	-27.80649720299936	-19.87353758585718
O	15.1417746932297	-28.112035526446217	-19.80174320426851
O	16.083294858806607	-27.196605699297862	-20.19139907951303
O	10.228329495232412	-27.45140964391012	-19.59702902005941
O	9.569631794613185	-26.22026791740876	-19.807827388257333
O	10.032659502477923	-24.981878630783456	-19.60609682581208
O	9.153468206304419	-23.92775314331098	-19.8299304135202
O	8.081478704239593	-24.065981301129153	-20.61928237371326
O	7.4655089574608615	-25.254718159112734	-20.237535339581566
O	8.319792558281684	-26.275583728543612	-20.098167864121205
O	7.229842127077948	-23.003774383678742	-20.90187965996948
O	7.587523330798955	-21.681267187819724	-20.545413252321453
O	6.781284571941937	-20.730387633614775	-21.37927391553335
O	5.359903570229607	-20.898108224489622	-21.261683715318718
O	4.685317875435498	-19.88598355186875	-22.027327124701415
O	5.058666010362326	-22.208291955859437	-21.776308709795686
O	5.817711929875712	-23.202660706455834	-20.97721843197619
