10

O	-2.7848336696624756	-0.1927216351032257	0.020345697179436684
O	-2.1075432300567627	-0.18629127740859985	1.2154392004013062
O	-0.7182509899139404	-0.07497424632310867	1.202731728553772
O	-0.01768263801932335	0.027505308389663696	0.0325179398059845
O	-0.7421224117279053	0.016428429633378983	-1.1403425931930542
O	-2.110548734664917	-0.09163420647382736	-1.1675989627838135
O	1.725011944770813	0.16834735870361328	-0.013841929845511913
O	2.2528903484344482	0.8536167144775391	1.2017110586166382
O	2.132885694503784	0.9071587920188904	-1.2583104372024536
O	2.3701937198638916	-1.427435278892517	-0.09265158325433731
