75

O	2.732284454207547	-3.6240933035679244	-0.8885393203584901
O	3.645385264207547	-4.541491533567924	-0.36253260235849005
O	3.3741606642075475	-5.165332103567924	0.8174108206415099
O	4.423489994207547	-5.172328673567924	1.84920581064151
O	4.452986094207548	-4.198003833567924	2.60514074064151
O	4.9938547942075475	-6.387864073567924	1.9995130006415098
O	2.1354841942075473	-5.024754603567924	1.36577940064151
O	1.1563353142075474	-4.468025393567924	0.54601354064151
O	1.4315355842075475	-3.5873007635679244	-0.4664699643584901
O	0.7550856042075474	-2.3168878135679245	-0.17571566235849007
O	0.0857769342075474	-1.6432532835679243	-1.13404381435849
O	-0.06712305179245265	-2.683579863567924	-2.45272315935849
O	-1.4003618547924526	-3.1742011135679244	-2.16833357935849
O	0.7852721842075473	-3.8365282135679246	-2.72310580935849
O	-0.15580870879245262	-1.6504376135679242	-3.83530120935849
O	-0.9908105507924526	-1.9905790335679243	-4.889132789358491
O	-1.0809181157924526	-1.0142009285679243	-5.84293067935849
O	0.5255091942075473	-0.37942471056792426	-5.748630509358491
O	0.6857465542075473	-0.6069027085679243	-4.021221159358491
O	1.7729335642075474	-0.2556305955679243	-3.13529982935849
O	2.642262914207547	-1.3236455435679242	-3.10604227935849
O	2.0765364742075474	-0.22582565556792428	-1.80160256935849
O	4.655809174207548	4.495492636432076	5.45335712064151
O	2.1047936242075473	6.045740716432076	3.12776203064151
O	1.0090700842075475	2.8877701164320757	1.5501068306415102
O	-1.9636101857924526	3.5207428964320755	-0.9203877223584901
O	-1.9905605357924525	7.161746966432076	-0.07634639435849011
O	-3.7553543357924526	5.782340086432076	3.05773721064151
O	-6.767725715792452	5.218756676432076	0.79008339064151
O	-8.804071765792454	-8.592343353567925	-6.459384899358491
O	-5.876704225792452	-6.190972373567924	-6.0384557793584905
O	-4.855208245792452	-7.930278243567924	-2.81290532935849
O	-6.562084395792453	-9.990570733567925	-0.2168267443584901
O	-4.785311085792452	-13.369360073567925	-0.3529671003584901
O	-1.9849361357924526	-13.643653073567926	2.22075180064151
O	-10.180726875792454	-2.3729943935679243	-11.20668823935849
O	-7.932831265792452	-0.8752814155679244	-8.51659272935849
O	-8.255374035792453	-3.1131202435679244	-5.450217389358491
O	-7.379473805792452	-3.1917148635679244	-1.74809671935849
O	-10.023366175792454	-5.879959473567924	-1.21828168835849
O	-2.2114849157924525	3.3055108864320757	11.843103260641511
O	11.968860424207547	1.3124082664320758	4.41311346064151
O	14.674631324207548	-0.03452554716792429	2.08147035064151
O	11.809186224207547	-3.3933491135679246	6.04639438064151
O	8.498266874207546	-2.2797002535679245	7.54531447064151
O	5.0849281842075476	-3.1177000435679245	6.07463515064151
O	3.8142170742075474	-6.652981563567924	6.906338980641509
O	-2.3581966157924525	-8.248346833567926	6.51026348064151
O	-6.158133565792452	-8.471543963567925	6.36957314064151
O	-7.6817653957924525	-5.005347313567924	5.87334991064151
O	-4.191541445792453	-3.4441671535679244	6.0338664706415095
O	-5.347000295792452	-0.4888065065679243	8.22106561064151
O	-8.074852705792452	0.25904676243207575	5.69304149064151
O	-6.114626865792452	0.009902972132075714	2.44198527064151
O	-2.4264978757924527	0.7917974694320756	3.1436401006415102
O	-2.133990035792453	1.2928765364320758	6.92885887064151
O	-1.2086481837924525	4.905726976432076	7.65399205064151
O	1.2291247742075475	0.3311760094320757	-12.799060639358489
O	-3.7264860057924527	-1.3631188735679243	-12.13561973935849
O	-5.512338685792452	-2.4891121635679245	-15.32081443935849
O	-2.632239765792453	9.649060536432074	-5.2548616493584905
O	0.5050957722075474	7.443193266432076	-5.522457639358491
O	1.2990726942075472	5.044053986432076	-2.67876163935849
O	4.066085694207548	2.6451734464320755	-1.79387315935849
O	4.922427094207547	-0.3300521475679243	0.4714858906415099
O	7.874752674207548	-2.7338375135679245	-0.019417779358490095
O	10.234138024207548	-0.1908218395679243	1.44637011064151
O	8.482048464207546	3.1690590864320756	0.7301096006415099
O	7.264417404207547	5.460081766432076	-2.09673547935849
O	4.857027514207548	8.402130536432075	-1.61989529935849
O	2.9780130842075474	10.858249426432074	-3.88296651935849
O	0.5093024912075473	13.677986926432075	-3.15261222935849
O	12.443612224207547	3.4827080564320756	-1.09742345035849
O	9.768857824207547	2.3231851464320754	-3.48108569935849
O	10.841402424207546	3.917740916432076	-6.755034339358491
