22

O	-2.695906400680542	-0.13734333217144012	-1.4766101837158203
O	-4.060475826263428	-0.17446351051330566	-1.190613031387329
O	-4.5534210205078125	0.012762079946696758	0.0760842114686966
O	-6.000446319580078	-0.030088605359196663	0.3594706356525421
O	-6.488301753997803	0.16044136881828308	1.643857717514038
O	-6.832599639892578	-0.24117574095726013	-0.5589178800582886
O	-3.6587142944335938	0.2442917376756668	1.089974045753479
O	-2.304225206375122	0.2822091281414032	0.812319278717041
O	-1.7968358993530273	0.09581506252288818	-0.4548625946044922
O	-0.3309883773326874	0.15393859148025513	-0.6559605002403259
O	0.30188286304473877	-1.1424980163574219	-0.5043315291404724
O	1.9944522380828857	-0.924963116645813	-0.7636347413063049
O	2.1735446453094482	-0.3768499195575714	-2.147566318511963
O	2.7192423343658447	-2.2507848739624023	-0.6975370645523071
O	2.6836297512054443	0.18895229697227478	0.447480171918869
O	1.9563143253326416	0.7482497096061707	1.4171949625015259
O	2.581538438796997	1.5817947387695312	2.292118787765503
O	4.189689636230469	1.5657131671905518	1.7345861196517944
O	4.016791820526123	0.5046899318695068	0.41287508606910706
O	5.034111976623535	0.026699427515268326	-0.5528896450996399
O	6.3405585289001465	0.46693992614746094	-0.4146824777126312
O	4.730158805847168	-0.7543300986289978	-1.4724738597869873
