29

O	-18.43107313253033	-36.98257560565163	3.704020762862782
O	-19.25187207321042	-38.00559418786416	3.12964203269223
O	-19.38823826504709	-38.12289362166679	1.839454414213357
O	-18.32280355901746	-37.425554557469624	1.2830444119594373
O	-17.709490350127076	-36.28973387818233	1.867135005171894
O	-17.896769988069064	-35.92813108328785	3.1487119093221
O	-17.769145522862008	-34.58922812869879	3.8122023108368412
O	-18.456313049946	-33.86562341368259	2.653429956472611
O	-17.659155607921612	-33.5236276503741	1.6561176319905615
O	-17.838447996399257	-33.68775390777469	0.27444628242457125
O	-18.759593180289965	-34.668975084278266	-0.043759593367913796
O	-19.727997413198743	-34.803359139175015	0.7807865105987083
O	-19.421626177230067	-34.649082978853045	2.095907534388707
O	-20.627020024974733	-35.79272636432484	0.35873826966274114
O	-20.118961915162956	-36.187178687049375	-0.8446959993657921
O	-19.139723944768704	-35.314709923218885	-1.0668436507642567
O	-21.41033171375544	-36.189082607082106	1.501366198268475
O	-22.094811160521708	-37.05361147354001	1.7086828198005912
O	-20.952211336093967	-35.688969025452096	2.772993358372335
O	-21.051717570816873	-36.24252891698113	4.014466379837195
O	-22.066116228261365	-37.20247899057631	4.037118912841158
O	-22.018626763797744	-38.130656135389884	5.071866092424268
O	-21.71256551356244	-37.4145310109559	6.234224660226644
O	-20.611032451860698	-36.56797136024754	6.270066119015606
O	-20.623595210998634	-35.69733431438502	5.181985882655733
O	-22.128977039924468	-38.03559713926957	7.356011499515713
O	-17.204253126323323	-33.028579112630624	-0.7202263965420534
O	-20.10393329687605	-38.91400608152157	0.9059929027771849
O	-20.89946168828179	-39.29613601578669	0.13108419432899998
