18

O	16.635184552315625	3.7539315620701887	1.451267483908144
O	17.65995906604087	2.768935347001964	1.6101219639891875
O	17.31514614417975	1.4552029766227719	1.3389626295226023
O	16.48614799970601	1.2665297461851512	0.3865334153971267
O	16.622630856120622	0.075630716714159	0.4298903907457472
O	15.611639919730827	2.2116056429534474	0.25650054380231224
O	15.627975128279676	3.524413492604692	0.5753822221459468
O	14.47786280434091	4.16642404237893	0.1777477132572951
O	13.780247080765427	3.3684442377053396	-0.6264473651029323
O	13.764579936282287	1.998734954237476	-0.9474871186833409
O	14.476395579355923	1.4959893076056585	-0.05784561798739607
O	14.207183092804591	5.327432692771309	0.9117067788981341
O	14.066700105289907	6.70889523348172	0.683574175803584
O	15.187330874006642	7.577582987242798	1.2716219871510928
O	15.026966660352254	9.034351686060724	0.9639145758024883
O	13.711561596763987	9.621580523520429	1.3871264839527986
O	12.635661335858252	8.780947877287193	0.7058250312075205
O	12.82195282686985	7.375263201425344	1.1952753927269026
