18

O	1.4814188480377197	-0.2763420641422272	-1.7702642679214478
O	2.757402181625366	-0.2799191474914551	-2.284116268157959
O	3.8295481204986572	-0.23202164471149445	-1.4768280982971191
O	3.6860454082489014	-0.17942877113819122	-0.14864468574523926
O	4.690785884857178	-0.13335780799388885	0.636724054813385
O	2.4302501678466797	-0.17333325743675232	0.41977059841156006
O	1.3374946117401123	-0.22169390320777893	-0.39192166924476624
O	0.06573306769132614	-0.2153983861207962	0.18664000928401947
O	-0.05416474491357803	-0.16225101053714752	1.5203797817230225
O	1.0397026538848877	-0.1144370585680008	2.3183515071868896
O	2.262622356414795	-0.12029443681240082	1.7668108940124512
O	-1.0693751573562622	-0.264534592628479	-0.6295429468154907
O	-2.423980712890625	-0.26445960998535156	-0.17474642395973206
O	-3.4156882762908936	-0.3249717056751251	-1.3155872821807861
O	-4.781137943267822	-0.7717449069023132	-0.8381789922714233
O	-4.828904628753662	-0.4495511054992676	0.6611030697822571
O	-4.265052795410156	0.9556999802589417	0.8571695685386658
O	-2.7426986694335938	0.9486805200576782	0.6628811359405518
