15

O	77.519	7.714	27.745
O	78.689	8.018	28.617
O	79.705	8.771	27.832
O	80.491	7.863	26.915
O	81.033	6.659	27.658
O	79.997	5.944	28.467
O	79.219	6.856	29.234
O	78.924	6.715	30.649
O	78.249	7.591	31.16
O	79.374	5.6	31.539
O	79.696	5.955	32.953
O	80.75	4.83	33.817
O	79.224	4.987	27.606
O	79.564	4.849	26.396
O	78.232	4.334	28.08
