15

O	0.7420662045478821	-0.786642849445343	-2.0844600200653076
O	0.21509040892124176	-1.7150648832321167	-0.7871478796005249
O	-1.2197110652923584	-1.953759789466858	-1.4821206331253052
O	-2.0299623012542725	-2.3980371952056885	-0.24496406316757202
O	-2.4405722618103027	-1.063230037689209	0.3040289580821991
O	-1.1333701610565186	-0.5457928776741028	1.0846158266067505
O	-0.010729904286563396	-0.6393625140190125	0.15693464875221252
O	0.9851585626602173	0.3527645170688629	0.2475130259990692
O	0.9657723903656006	1.3437234163284302	1.0393322706222534
O	2.1849124431610107	0.27797722816467285	-0.6383995413780212
O	3.1472556591033936	1.4131971597671509	-0.41274207830429077
O	3.790203332901001	1.4904322624206543	1.2557978630065918
O	-1.5753971338272095	1.018310308456421	0.9323920607566833
O	-2.3757073879241943	1.4978580474853516	1.950010061264038
O	-1.2450090646743774	1.7076271772384644	0.02451925538480282
