15

O	77.92906463668602	8.79844606742049	29.401279878047045
O	78.98630599024038	7.818508004205458	29.804247531262675
O	80.39035452346761	8.31988569792393	29.64910835216288
O	80.67032255583635	8.239191648297966	28.146790960836505
O	79.48844131417859	8.178608612818897	27.250032590329337
O	78.58103187345573	6.971027014612412	27.544376234324265
O	79.02508399870476	6.670436116598967	28.854578805417567
O	78.82961138682283	5.490594386886096	29.61731849741345
O	77.63363629933704	5.255939994933215	29.97215994031082
O	79.78870619016527	5.324481107436362	30.771663127819046
O	79.28270990522503	5.978809916358045	32.02418112348289
O	78.78315813043949	4.618355964188661	33.13727972456798
O	78.61856786639349	5.973098345007312	26.473455943690205
O	79.67427831676835	6.008069958304397	25.819323533603658
O	77.52653771200971	5.7410206122910665	25.601288911127007
