18

O	-4.704	34.816	-15.472
O	-5.43	35.534	-16.432
O	-6.317	36.53	-16.018
O	-6.508	36.796	-14.66
O	-5.745	36.099	-13.717
O	-4.866	35.091	-14.1
O	-7.394	37.807	-14.221
O	-7.404	38.162	-12.875
O	-6.621	37.49	-11.948
O	-5.874	36.419	-12.378
O	-6.589	37.758	-10.524
O	-7.392	38.729	-9.906
O	-7.355	38.994	-8.54
O	-6.491	38.229	-7.753
O	-5.695	37.235	-8.319
O	-5.736	37.006	-9.693
O	-8.194	38.375	-14.99
O	-6.425	38.428	-6.429
