18

O	4.1636810302734375	1.5653983354568481	-0.08652684092521667
O	4.66959810256958	0.2848859131336212	-0.1647077053785324
O	3.8071043491363525	-0.7890627980232239	-0.1759030967950821
O	2.431962728500366	-0.6039665341377258	-0.1095796450972557
O	1.9285991191864014	0.6738447546958923	-0.03161831572651863
O	2.7971975803375244	1.745501160621643	-0.020788807421922684
O	1.5834922790527344	-1.7008863687515259	-0.12238175421953201
O	0.21529830992221832	-1.4921237230300903	-0.055297426879405975
O	-0.22294139862060547	-0.18770402669906616	0.021091168746352196
O	0.627536952495575	0.8084099292755127	0.029338965192437172
O	-1.6803383827209473	0.056019097566604614	0.09349583834409714
O	-2.184920310974121	1.335438847541809	0.17155401408672333
O	-3.519261360168457	1.596909999847412	0.23955388367176056
O	-4.409184455871582	0.5424057841300964	0.2304181605577469
O	-3.94158673286438	-0.7563896179199219	0.15306365489959717
O	-2.571720600128174	-0.9855515956878662	0.08499477058649063
O	2.091888189315796	-2.850386381149292	-0.1948612928390503
O	-5.786405086517334	0.7572571635246277	0.2981656491756439
