9

O	5.9170252671907315	11.02645210259157	44.888356753098236
O	5.339686004970903	12.225101132109536	44.249884596179704
O	4.821357903600648	13.084895759906246	45.21605749013578
O	4.0747941794691	14.112724211477657	44.739575762089714
O	3.4579793282984603	14.934585647644624	45.7832440535109
O	3.4663099197738907	14.026744682060727	43.57036874860841
O	3.884390311264797	13.085328793843878	42.73565726291824
O	3.205979987052949	12.948943238315582	41.52423715321504
O	4.554475811804842	12.027872280297867	43.18993545109012
