15

O	12.682	38.572	77.476
O	11.703	37.691	77.009
O	10.463	38.128	77.722
O	12.039	39.491	78.452
O	14.144	38.621	77.133
O	9.128	37.474	77.561
O	12.68	40.61	79.229
O	14.829	37.354	76.694
O	12.078	37.181	74.618
O	11.837	36.582	75.993
O	10.739	39.163	78.534
O	8.333	37.469	78.642
O	14.785	39.648	77.254
O	8.784	36.981	76.491
O	6.975	36.92	78.633
