64

O	2.096362826081632	-0.5257103294693881	2.7016130443265305
O	1.573871636081632	0.6974124111306118	3.019955344326531
O	1.082885316081632	1.1425120825306119	1.8438965403265306
O	2.2218260660816322	-0.7386719994693882	1.3583014503265305
O	1.451628756081632	-1.7288316994693882	3.0042448943265305
O	-0.2588355696183679	0.6685787785306119	1.3364292393265305
O	2.543344486081632	-1.9113374194693882	0.4766814223265305
O	2.428745846081632	-1.995037569469388	4.07369162432653
O	0.31896967208163207	2.572781680530612	4.12776413432653
O	1.3187555660816321	1.4737709165306119	4.189734454326531
O	2.066826516081632	0.5387950225306118	1.1017683063265304
O	-0.42044504091836793	-0.25863312446938813	0.29180054932653055
O	1.0032138560816322	-2.7313527194693883	2.3509637043265306
O	-0.9679718349183679	0.8851767315306118	2.3668739943265305
O	-1.2621118359183678	-1.380019769469388	0.5145769473265305
O	10.005161426081632	7.270147010530612	-5.10135821567347
O	-13.031437073918369	6.236878470530612	-1.1542825856734695
O	-12.759841173918367	4.322767320530612	7.136146544326531
O	-9.845039743918367	2.240015080530612	5.774455564326531
O	-9.47264723391837	4.171086420530612	2.4777632443265305
O	-6.667820093918368	6.471304120530612	3.6603837543265305
O	-3.583171603918368	4.266164270530612	2.9852827143265306
O	-4.939716793918368	3.704491430530612	-0.5506501856734695
O	-5.949087643918368	7.296729280530612	-1.4225302556734696
O	-2.556112843918368	8.214261730530612	-2.9956540156734692
O	0.6404373910816321	6.502130340530612	-4.233164915673469
O	2.857242156081632	4.804313480530612	-1.7190528756734693
O	5.380904136081632	7.379085040530612	-0.5173274656734695
O	8.208174876081632	4.965664960530612	0.14090812332653047
O	10.435502726081634	7.687214280530612	1.5061438433265306
O	8.171084836081633	8.944164930530611	4.31347624432653
O	6.854034666081632	5.422794270530612	5.0901393643265305
O	10.475653826081633	4.254465730530612	5.156162514326531
O	9.985397126081633	1.314007524530612	2.7994231843265305
O	13.117729026081633	1.4739162725306119	0.6946925553265305
O	12.460855626081631	-1.9843282094693881	-0.8402967956734696
O	8.866258996081633	-1.300337929469388	-1.7604995356734694
O	9.43543072608163	-0.28452333946938824	-5.354221935673469
O	6.308407616081632	-3.667762229469388	-6.569958635673469
O	3.1192961660816323	-2.054362039469388	-10.85057182567347
O	2.098921636081632	0.40956355053061183	-8.19049119567347
O	-1.528339123918368	1.5443838585306118	-8.171217755673469
O	-3.797093473918368	3.503375850530612	-5.84602777567347
O	-7.324092903918368	4.984837940530612	-5.66326163567347
O	-5.991325933918368	8.54667824053061	-6.08643716567347
O	-3.423765713918368	-4.561418189469388	-8.997675555673469
O	-3.714822973918368	-2.2063928594693882	-6.017826015673469
O	-4.981494903918368	-5.013674259469388	-3.809779375673469
O	-2.438397833918368	-7.509002689469389	-5.184858105673469
O	0.47625503008163206	-5.123249309469388	-4.5327491656734695
O	-0.608228493918368	-4.911988989469388	-0.9296377456734696
O	-0.8041725079183679	-8.686053919469389	-0.4827168456734695
O	4.502746076081632	-6.687728589469388	-0.3929842256734696
O	3.047701256081632	-7.131894359469388	3.0463905543265306
O	2.6991869460816322	-9.927495949469389	5.610199264326531
O	-0.563152591918368	-11.832443949469388	6.04631569432653
O	-2.6126278639183678	-10.233719649469387	8.81868004432653
O	-0.8900892889183679	-6.903449939469388	8.93885553432653
O	-3.2345530939183678	-3.904573559469388	9.32980893432653
O	-2.784873503918368	-2.6717448894693883	5.679423474326531
O	-3.727322123918368	-6.163361769469388	4.49613161432653
O	-6.881599383918368	-6.266081689469388	6.725402514326531
O	-7.751246873918368	-2.8678605194693882	5.281203474326531
O	-7.284309473918368	-4.036992579469389	1.6678430533265305
