15

O	1.3133599758148193	0.164897620677948	-0.048099007457494736
O	0.06511350721120834	-0.2395496517419815	0.36685341596603394
O	-0.8564388751983643	0.4543989300727844	-0.3837682008743286
O	1.1565461158752441	1.1116364002227783	-1.0580765008926392
O	2.6329307556152344	-0.25121957063674927	0.4125119149684906
O	-2.3068320751190186	0.3603914678096771	-0.30080652236938477
O	2.2243974208831787	1.8370978832244873	-1.820587396621704
O	3.29459810256958	0.472547322511673	1.5288569927215576
O	0.06167556345462799	-2.6565139293670654	0.9715511202812195
O	-0.18295086920261383	-1.2381490468978882	1.4286229610443115
O	-0.1644287258386612	1.2507059574127197	-1.2224955558776855
O	-2.968559741973877	-0.5013270974159241	0.6119168400764465
O	3.180471181869507	-1.210593581199646	-0.14292986690998077
O	-3.0361294746398926	1.0536881685256958	-1.0519037246704102
O	-4.413752555847168	-0.6080108880996704	0.7083535194396973
