74

O	-0.35127954604230693	-6.453331621249999	-0.502267184051923
O	-0.620887406042307	-5.69899509125	-1.6051390646519232
O	-1.376683334042307	-4.61152639125	-1.156121975651923
O	-0.984198892042307	-4.04977463125	0.029658102348076976
O	-0.3732193800423069	-4.72721518125	1.082719175348077
O	-0.09018532904230692	-6.00356064125	0.742894545348077
O	0.08729009095769302	-4.00037653125	2.191805955348077
O	-0.07452879904230691	-2.6639086712499997	2.376770215348077
O	-0.533588588042307	-2.1671535612499997	1.2086455253480768
O	-1.334999849042307	-2.7767169412499997	0.2808845743480769
O	-1.220667681842307	-1.9883304112499998	-0.9406856546519231
O	-1.8434373870423069	-0.8074108642499996	-1.221321456651923
O	-1.0187543100423069	0.02107497675000028	-1.8501068446519229
O	0.10524622095769298	-0.27409806324999975	-1.184635518651923
O	-0.049513879042307085	-1.6753031612499998	-1.421659897651923
O	0.40599545095769307	0.7979088847500003	-0.17548887165192306
O	0.156538710957693	2.01733408875	-0.47477035841192305
O	0.8662862309576929	0.7503470587500003	1.1630254453480768
O	-1.760911588042307	0.5377926617500003	-2.719469584651923
O	-2.3018473190423068	-0.5404298262499997	-3.791381924651923
O	-2.580666639042307	-1.7716310012499996	-3.317115384651923
O	-1.714577690042307	-1.1816054412499997	-4.958253904651923
O	-14.366434539042308	1.4520348687500004	0.7080801853480768
O	-10.069240659042308	-5.20443859125	-1.064003674651923
O	-6.4896545390423075	-5.17954065125	-2.316292244651923
O	-5.052532209042307	-7.70878151125	0.20053156534807692
O	-4.198656539042307	-8.672552051250001	3.852956225348077
O	-1.2782807458423069	-6.98358875125	5.736743205348077
O	0.6352872009576931	-7.55536188125	9.024364605348078
O	-2.142588662042307	-5.77925827125	11.053438975348078
O	-5.297064249042307	-6.3788668912499995	8.940218285348077
O	-7.011273479042307	-5.72861380125	5.584517005348077
O	-6.075900479042307	-3.14174721125	2.965224695348077
O	-8.762685079042306	-1.5531209812499998	0.713239545348077
O	-8.917797999042307	0.7480900427500004	-2.335704974651923
O	-11.192560839042308	3.6925012187500004	-1.556547444651923
O	-12.003889439042307	7.40004764875	-1.7932278046519232
O	-8.357827119042307	8.06931580875	-4.268496954651924
O	-6.692877919042307	6.26268455875	-1.309502019651923
O	-5.343545569042307	2.94365965875	0.15472777634807688
O	-6.942278539042308	2.2899530187500003	3.5591968953480766
O	-5.223278459042307	0.009895388750000289	6.064280725348077
O	-7.410647509042307	-1.3903245412499996	8.925163235348077
O	9.741054160957693	10.005218758749999	-2.724072734651923
O	7.683795130957693	9.336209248749999	0.4607995833480769
O	4.193848370957693	7.65791482875	0.49737309834807697
O	-7.578742189042307	2.7512921387500002	9.905728675348078
O	-4.714000669042307	4.65355781875	8.337061395348076
O	-5.300924839042307	6.3573459987500005	4.9869655453480775
O	-2.4976368890423073	6.48050903875	2.465537125348077
O	-1.699597928042307	7.91959444875	-0.9469820266519231
O	-2.6926297190423067	5.25217691875	-3.450125064651923
O	0.3583130409576931	3.7412782587500004	-5.369409764651923
O	-0.8768709000423069	1.8868567887500003	-8.588124864651922
O	1.755551990957693	-1.0372582652499998	-8.680681104651923
O	1.8051822709576932	-2.1899122312499997	-4.950237334651923
O	4.857342060957693	-3.4293894312499997	-2.966559184651923
O	8.349502380957693	-3.3097118812499997	-4.484305804651923
O	9.286383460957692	-6.86395179125	-3.306389674651923
O	6.257849740957693	-8.402565161250001	-5.155591994651923
O	6.721959250957693	-6.14084970125	-8.230262784651924
O	10.390832160957693	-7.29750766125	-8.596298654651923
O	11.814790560957693	-3.6492200212499997	-0.4295551187519231
O	8.689410490957693	-4.90557866125	1.3170639653480771
O	8.062758250957692	-1.3544146812499998	2.762285965348077
O	8.597974630957692	0.47635378375000037	-0.6033787436519231
O	5.864003170957693	1.1225688187500003	-3.147373404651923
O	5.693340590957693	1.4067943987500002	-6.939809814651923
O	3.626140320957693	4.263816078750001	-8.407907264651923
O	8.400579440957692	5.734017568750001	-2.692080954651923
O	9.338919560957693	4.8180466087500005	0.909119305348077
O	6.613897230957693	3.98443052875	3.463628915348077
O	6.120740670957693	2.9285419587500003	7.152701205348077
O	13.329961560957694	-9.78815158125	-5.428026294651923
