22

O	11.370630676903035	6.626272828439418	22.787526877764115
O	10.857188934363279	5.669775070129812	23.611861760594415
O	9.5983551536455	6.133090131367776	24.006967659093718
O	8.843535095087727	6.737013830083451	23.036809777207857
O	9.343691604818215	7.454595437544501	21.95233783716339
O	10.691061022559671	7.376979054803539	21.895609222620333
O	8.457279237876548	7.916368236151372	20.96670307733349
O	7.104916259113996	7.789204899143759	21.005269005880894
O	6.826965756506317	6.9481615107009	22.023800476888113
O	7.50975864178566	6.7790729065493	23.198436942120242
O	7.046168830789953	5.517287137224166	23.76398105975453
O	5.883202109943519	5.2952305541889215	24.441748583098757
O	5.348401428879282	4.13263103034344	24.08931049055276
O	5.643217888265201	4.16584692847946	22.783425211385598
O	7.024005695535781	4.433238298422498	23.03922563755105
O	4.424195566449138	4.536612001328581	21.98684264144914
O	3.282409212561289	4.094614729897188	22.36068516942294
O	4.230945054397583	5.3935785338336295	20.875981305360103
O	4.942069220151787	3.6755593532929485	25.184557395670193
O	6.146666497569886	3.38074841338224	26.217128542028426
O	7.1834275754954255	4.242766690579055	26.193123239124183
O	7.115347627076282	2.3033094003781143	26.3526425513428
