24

O	0.3631725311279297	-0.3965208828449249	-0.7061699628829956
O	0.6473152041435242	-1.529651403427124	-0.1151808574795723
O	1.8835170269012451	-1.5250251293182373	0.39494872093200684
O	2.4396586418151855	-0.2956864833831787	0.11183988302946091
O	1.4571703672409058	0.387006551027298	-0.5802764892578125
O	3.7408447265625	0.150994673371315	0.46423086524009705
O	4.141238212585449	1.4607285261154175	0.0831172838807106
O	5.435608863830566	1.885180115699768	0.44195878505706787
O	3.336850166320801	2.1891603469848633	-0.5542249083518982
O	2.561999797821045	-2.591073989868164	1.1212689876556396
O	1.8952378034591675	-3.821324110031128	1.3589494228363037
O	3.733566999435425	-2.4757890701293945	1.5583953857421875
O	-0.8115810751914978	0.040810730308294296	-1.375433087348938
O	-0.8293346762657166	0.15555909276008606	-2.763826370239258
O	-2.0025930404663086	0.586792528629303	-3.3614437580108643
O	-3.1261494159698486	0.8967311978340149	-2.62068772315979
O	-1.9221909046173096	0.3443833291530609	-0.6076056957244873
O	-3.0855202674865723	0.7751545906066895	-1.2408254146575928
O	-4.167774200439453	1.0671007633209229	-0.4432959258556366
O	-4.073833465576172	0.9290237426757812	0.9241758584976196
O	-2.923306465148926	0.5027815699577332	1.5530900955200195
O	-1.8363021612167358	0.2089156210422516	0.7602262496948242
O	-2.879286527633667	0.3792051374912262	2.9442250728607178
O	-3.9783084392547607	0.6755428910255432	3.755709648132324
