24

O	-4.61468813302699	8.1006267956315	13.462100486496782
O	-5.468234620558716	7.26478540767545	14.085107869120566
O	-4.634878029603844	6.289947586391361	14.545012373292689
O	-3.445866197161603	6.927063568240952	14.674520720192595
O	-3.709324847246604	8.271290084449738	14.464231473650315
O	-2.35556104564814	6.22235151699783	15.193740631092837
O	-1.2362545283371635	7.121024998249883	15.518876692798
O	-0.1550209821307762	6.430246249788558	16.185912698179518
O	-1.6335254102351864	7.841135094738159	16.50734370673267
O	-4.910392482140026	4.912156731442214	14.797265846038055
O	-3.8832110809128526	3.984072576626507	14.723940209945008
O	-6.043450746798245	4.47904275822276	14.586042696411772
O	-5.205164015364748	9.036063912957013	12.558108769929287
O	-5.876266875506804	8.4454821863305	11.534812353281175
O	-6.721713428475544	9.288882744812149	10.794580474247496
O	-7.336997779412831	10.461273031626384	11.305049439917555
O	-5.976034956115791	9.994174824734257	13.112988239733488
O	-7.052116804685512	10.695187798947488	12.560615912938811
O	-8.148372889373451	10.75739064511046	13.446127433607652
O	-7.743416755333326	10.624196164459908	14.710368917216368
O	-6.435761824192836	10.763122124405786	15.248182780269753
O	-5.499021053239513	10.36205207782949	14.366891682011273
O	-6.178709556721964	12.148836929311555	15.68790774399309
O	-5.693004221564082	13.246416154427694	14.983442389300125
