86

O	0.8293650393313438	1.1120742827462688	-0.0064791680462679135
O	1.867734629331344	1.4445259387462688	-0.9704953806162679
O	1.6764731493313438	1.4026114157462688	-2.288929649046268
O	2.8089474893313437	1.330419233746269	-3.1066553290462684
O	0.46193702933134373	0.9372369457462689	-2.564054769046268
O	-0.49270761966865634	0.49477489374626893	-1.596472052046268
O	-0.4593768386686563	0.902517345746269	-0.24309863104626794
O	-1.0153793497686563	-0.20152873025373108	0.6263236309537321
O	-2.2443501206686562	-0.24817413625373108	1.212239840953732
O	-2.7889332106686564	0.5079398337462689	2.7562354409537324
O	-3.108341630668656	-1.746175771253731	1.7239059509537322
O	-3.984560770668656	0.09924508274626886	0.831252380953732
O	-0.1994532346686564	-1.3381039012537312	0.1124912209537321
O	1.1073951293313438	-1.0673187612537312	0.11538977095373193
O	2.0977301593313435	-1.3832000712537311	-0.875973982546268
O	1.7924310893313438	-1.786561141253731	-2.113175099046268
O	2.625753409331344	-1.613135191253731	-3.185678159046268
O	0.5156033593313437	-2.166909161253731	-2.082593989046268
O	-0.5008571496686564	-1.7959486712537311	-1.1471074550462679
O	3.8283766593313437	2.552755898746269	-11.949412459046266
O	1.0677308193313437	5.149261488746268	-12.344136959046267
O	-2.2308791206686562	5.307802218746269	-10.467783369046268
O	-12.187011610668657	5.374450158746269	-3.5141817290462676
O	-8.827941250668657	6.680162178746269	-2.353671249046268
O	-8.156179480668657	3.2412423787462687	-0.8712340319462679
O	-9.506222750668657	1.750210138746269	-4.083651449046268
O	-6.868559020668656	3.614630938746269	-6.089129789046268
O	-4.138154330668656	2.4346465687462686	-3.7844812290462677
O	-5.376165240668656	-1.1556868712537312	-3.752650959046268
O	-5.437607780668656	-1.1025701112537312	-7.584135789046268
O	-1.8421425086686565	0.1724356697462689	-7.708841159046268
O	-0.5760272816686564	-2.3251814912537307	-5.233218229046268
O	-2.1889102506686564	-5.231660041253732	-7.169173889046268
O	-0.23032217466865634	-4.101612441253732	-10.223047489046268
O	2.9823618093313438	-3.609989311253731	-8.191375709046268
O	2.688093189331344	-7.151608861253731	-6.8683255390462685
O	2.9726298193313436	-8.60817467125373	-10.336754669046268
O	6.832323619331344	-13.71435165125373	-0.851701560046268
O	5.573194079331344	-13.11633855125373	4.281965590953732
O	7.464278999331344	-10.18210235125373	2.6980774609537317
O	5.165272649331344	-8.70617703125373	0.13299634095373203
O	3.9374986093313433	-5.803414441253731	2.253318910953732
O	7.344995479331344	-4.920968831253731	3.7000387409537314
O	8.698455779331344	-4.853935651253732	0.1449883309537321
O	6.040416319331344	-2.641604391253731	-1.214249683046268
O	6.477724699331344	-0.34183428125373116	1.874726060953732
O	10.175051989331342	0.07496179574626893	1.576491030953732
O	9.741271689331343	0.8451052947462689	-2.1314685790462677
O	7.178899719331343	3.5138569687462686	-1.278396267046268
O	9.474833289331343	4.989687578746269	1.382973260953732
O	12.349530989331344	5.064629878746269	-1.108497183046268
O	10.242762389331343	6.866439588746268	-3.7525231590462678
O	4.221480949331344	9.75471079874627	0.23846147095373205
O	4.7944899993313435	9.22629919874627	-3.4719472190462684
O	2.549462509331344	6.323398748746269	-4.178223639046268
O	2.950812119331344	7.1599575187462685	-7.824401869046268
O	4.397327419331344	10.04464956874627	-9.899666019046267
O	0.8121149993313436	11.26020454874627	-10.293903779046268
O	-0.2449752436686563	10.56014042874627	-6.712764639046268
O	-5.144700060668656	9.44077789874627	5.266232620953732
O	-4.608497300668656	4.261778818746269	7.677699970953731
O	-3.4666037306686563	7.556598898746269	9.194256940953732
O	-1.2423083296686563	5.892199028746269	11.821012040953732
O	0.43000117933134374	3.851995638746269	9.068958540953732
O	0.9804333093313436	6.869893088746268	6.834302170953732
O	2.725004729331344	8.570650038746269	9.790325040953732
O	5.067830909331343	5.618332348746269	10.283282240953733
O	5.864223499331343	5.519477318746269	6.544477220953731
O	10.762135789331342	6.089077868746268	7.857301240953732
O	4.513458719331344	-1.266762441253731	9.648414640953733
O	3.7424722393313434	-4.319963581253731	7.554604720953733
O	-0.02665609466865637	-3.0131239012537314	11.352837940953732
O	-0.9235178608686564	-2.644687211253731	7.760038110953732
O	-1.8924185866686565	-6.248111781253732	7.402541990953732
O	-4.406377320668656	-5.776498841253732	10.275917240953733
O	-5.925711100668656	-2.676679641253731	8.644035670953732
O	-6.232402510668656	-4.596462221253732	5.386825040953732
O	-8.058752300668656	-7.404109651253731	7.175120450953732
O	-11.095339010668656	-3.445731821253731	5.248962700953732
O	-11.892037910668657	-6.844135691253731	3.821333930953732
O	-13.157633810668656	-1.3146436012537313	-0.557897623046268
O	-12.819876210668657	-4.204516071253732	-3.0376252090462676
O	-9.486000320668657	-6.003460501253731	-2.660639399046268
O	-8.099697520668657	-7.8176637912537315	-5.725503209046268
O	-4.1593794606686565	-9.25484222125373	-2.638122289046268
O	-3.5979434806686563	-11.23381655125373	2.970219350953732
