19

O	-3.2639484078596785	-2.6516837833064537	21.522790198002976
O	-1.9391058686985887	-2.220611432797461	21.102038914977523
O	-1.417359086872866	-2.5277497643552893	19.914582371737716
O	-0.029228024647496298	-2.4324310057508205	19.771783149138333
O	-2.235186716573664	-3.335442813071423	19.24663392842711
O	-3.4750639181870016	-3.8484296332511687	19.739466998343115
O	-4.201524757302964	-3.2294404453805163	20.7825832427399
O	-4.957648571714758	-4.282360586378669	21.559492216752613
O	-6.290980626018506	-4.554201957416181	21.494911594838605
O	-7.6546963615523165	-3.7250288384341523	22.334526281333286
O	-7.066383335943416	-6.121606030526358	21.93569220350466
O	-7.617152017853874	-4.745276642869472	20.270597677235113
O	-3.8384068082211553	-5.232187563350928	21.81773411666379
O	-2.7743542260959355	-4.629909315466743	22.352746877936458
O	-1.3817340034475363	-4.8322459882737325	22.06462303006172
O	-0.9455455637128227	-5.499635855022138	20.99182077036677
O	0.28480546359383974	-5.291606376643747	20.42814928041539
O	-1.9854733012037313	-6.192635884285539	20.529013971646535
O	-3.379489919522901	-5.9540230514380275	20.74283700745742
