20

O	99.92923924979786	20.15175117168725	31.134050498686037
O	100.17853399742549	21.02230988829016	32.648212527028846
O	100.3846220392485	20.164890649016204	33.68892902900029
O	101.40932598921266	20.364198630415157	34.636912275098254
O	100.93942734517897	22.14661214964771	32.651763751107
O	101.77463526608334	22.36313181580755	33.74961407524466
O	102.24578402259942	21.391385198180153	34.592582958052496
O	102.52782017096855	21.874444687321322	35.941068827341816
O	102.08933819645848	21.148377248570938	36.998719508753
O	102.16994541758258	23.29475768823378	35.934785075765355
O	102.54188488520695	24.227367451812782	34.905792987077966
O	101.79421950796667	25.39919329331985	34.98298260067726
O	101.52249997876189	25.779124219312415	36.24080375573818
O	102.18139540864998	25.071068310057463	37.29272902627815
O	102.58118819342025	23.7802387884567	37.14491460806611
O	103.74750251164878	22.899179988040927	37.311856267232365
O	103.90364579120897	22.199744761403824	36.19559443456692
O	105.00180921151168	21.37431250894817	36.506687243305166
O	104.60815909937827	21.14919940247724	37.96939496490861
O	104.72788700659407	22.596067284065324	38.35288555386342
