54

O	-4.615682561813953	-0.13298531209302325	4.706496094309303
O	-4.718524241813953	-0.10461449609302324	3.3488555943093026
O	-5.692492771813954	-0.3879300700930232	2.688946404309302
O	-3.4490528918139534	-0.13473653909302324	2.5995734943093023
O	-3.4292891118139535	-0.22210260609302324	1.2123296293093024
O	-2.3776537898139534	0.41842875390697676	0.4606476983093024
O	-1.2366147588139533	0.07814515380697674	1.1318305033093023
O	-1.3016677178139533	0.7205038679069767	2.3981147643093026
O	-0.3328544018139532	0.23259987290697676	3.1262239443093023
O	-2.5056717418139534	0.6689526809069767	3.1287286843093023
O	-2.5759504818139534	1.1296362449069768	4.491611434309302
O	-4.161422671813953	-14.528445275093024	5.660428244309302
O	-4.522867481813953	-15.009466675093023	-0.5308843356906976
O	-1.6811461588139534	-13.816981175093025	-4.642683065690697
O	8.673393278186046	-5.477961245093023	-5.165382585690698
O	8.572308678186047	-4.918551985093023	-0.29876085569069755
O	11.054465878186047	-2.0523374150930236	-0.8059739556906975
O	10.736749178186047	-3.0267098250930236	4.421983784309303
O	9.723865478186047	0.4965184489069768	3.3980549243093026
O	3.6212384581860464	7.616088354906977	-4.932466855690698
O	-0.12253992181395335	7.221640404906977	-4.425458565690698
O	-2.9352758518139535	5.950883034906977	-2.1862030756906976
O	-6.636305221813953	6.394154544906977	-1.5714124956906974
O	-9.253675781813953	4.960049214906977	-3.889957945690697
O	-9.712581311813954	1.1892156049069769	-3.855973495690698
O	-12.736030821813953	0.8023604529069767	-6.319719735690698
O	-8.162258561813953	8.062346254906975	-5.636117965690698
O	-5.2824219018139535	10.467453324906977	-6.246245535690697
O	-4.594894911813953	10.798753024906976	-2.5121548656906976
O	-0.8286484808139533	13.668643624906975	2.0425819543093024
O	0.3378643081860466	12.271885524906976	5.432405624309302
O	4.581601358186046	9.510025784906976	-0.45497245569069755
O	1.3955634181860466	8.091359484906976	0.9678420650093024
O	1.7986733181860466	4.344914234906977	0.7539535203093024
O	0.43855599818604674	3.6183755949069765	4.325181454309302
O	2.780033468186047	5.819270374906977	5.864682404309303
O	5.8565971281860465	4.518080764906977	3.9300856343093025
O	4.939308398186046	0.8207085809069767	3.8248714443093026
O	3.3927705681860463	-0.07247607609302326	7.240620754309302
O	4.443947638186047	-3.6833504050930235	6.911961994309302
O	2.3373499781860465	-4.139685575093023	3.8057852843093025
O	-0.6889305838139533	-4.019728855093023	6.120086194309303
O	-1.2654733788139532	-7.789954235093023	6.157128794309302
O	-1.2204912888139532	-8.023398775093025	2.3534419343093025
O	-3.3744251718139533	-5.008608175093023	2.0486380543093023
O	-6.063945951813953	-6.3842148050930225	4.285792734309302
O	-6.141416841813953	-9.583432125093024	2.2249445443093023
O	-6.368835641813954	-7.506278365093023	-0.9487543556906977
O	-9.464087041813952	-5.782185945093023	0.47510494230930245
O	-0.33101404181395333	-7.338897965093023	-5.7431769156906975
O	3.2382169481860466	-3.3894267550930235	-6.651087935690698
O	2.3277739681860465	0.28105067490697677	-5.9647486456906975
O	7.555094108186047	0.43110836690697674	-4.7912602256906975
O	7.743317468186046	4.217205974906977	-4.672180415690698
