16

O	32.90966489945308	10.045210431806005	60.22660786840282
O	33.20294265422249	10.921557207198768	61.25646018983959
O	32.17163419094693	11.0792489740018	62.175418722267864
O	30.928375193106888	11.247868984936211	61.56781111367303
O	30.67161897415441	10.33039743332496	60.55790653800435
O	31.649208259110225	9.681109710603328	59.854986772742606
O	31.254129486664702	8.637045981545832	58.95897238323278
O	31.131843240673575	7.757725706581667	58.070260240539895
O	31.087254332158885	6.940710529011142	56.83360141797153
O	29.835283627611673	6.686246617837943	56.312617675354
O	29.504371942031867	5.303066096625371	56.20519474223153
O	28.661930611258988	4.821365869048246	55.08929260708483
O	30.89572151704163	4.841049585491751	55.71877243147388
O	31.113028649649262	5.293720848939589	54.431664559427865
O	31.654470901651035	5.5910955512531775	56.77351108602794
O	32.95458453205407	5.7266781765348735	56.25273476372422
