35

O	5.221	24.441	20.693
O	5.792	24.863	19.505
O	4.998	24.971	18.359
O	3.621	24.653	18.452
O	3.09	24.244	19.613
O	3.864	24.125	20.708
O	7.357	25.219	19.522
O	7.754	26.419	20.54
O	7.248	27.716	20.394
O	7.626	28.709	21.294
O	8.518	28.435	22.337
O	9.041	27.151	22.494
O	8.65	26.159	21.592
O	7.74	25.606	18.194
O	8.16	24.11	19.995
O	2.738	24.707	17.426
O	3.269	23.733	21.843
O	1.934	23.53	21.91
O	0.845	23.51	21.067
O	-0.184	23.156	21.933
O	0.197	22.957	23.171
O	1.558	23.213	23.132
O	1.444	24.034	17.492
O	1.597	22.624	16.937
O	0.259	21.888	16.908
O	-0.853	22.626	16.14
O	-0.921	24.124	16.458
O	0.444	24.783	16.619
O	-2.112	22.039	16.5
O	-1.618	22.926	21.827
O	-2.241	22.351	22.92
O	-3.6	22.106	22.8
O	-4.329	22.467	21.643
O	-3.672	23.07	20.58
O	-2.283	23.3	20.662
