36

O	7.891549110412598	-1.473078966140747	1.8855220079421997
O	6.521840572357178	-1.594107985496521	1.2631398439407349
O	5.998926162719727	-2.7924695014953613	0.692987322807312
O	4.8978166580200195	-2.5155961513519287	-0.29034289717674255
O	4.577698707580566	-2.709353446960449	-1.5454883575439453
O	3.3893344402313232	-2.1703591346740723	-1.7624748945236206
O	2.9125726222991943	-1.6111077070236206	-0.6386680603027344
O	1.6438926458358765	-0.9382886290550232	-0.5270144939422607
O	0.8771417737007141	-0.8398849964141846	-1.5474096536636353
O	1.1407139301300049	-0.3503867983818054	0.6504097580909729
O	-0.14246998727321625	0.2886485457420349	0.6169895529747009
O	-0.8058257102966309	0.9157249927520752	1.6465632915496826
O	-1.9545828104019165	1.3543318510055542	1.1457793712615967
O	-2.123744249343872	1.0903936624526978	-0.08700130879878998
O	-1.0135506391525269	0.4243965148925781	-0.4571915566921234
O	-3.145986318588257	1.3407412767410278	-1.133101463317871
O	-4.171680927276611	0.15075069665908813	-1.1523555517196655
O	-3.330986261367798	-1.121860146522522	-1.445870041847229
O	-2.7701051235198975	-1.7604880332946777	-0.2496291995048523
O	-3.7421693801879883	-2.580674886703491	0.5380858182907104
O	-5.115440368652344	-1.994396448135376	0.40633466839790344
O	-4.9218573570251465	-0.19339445233345032	0.4309086203575134
O	-4.155172824859619	0.14758215844631195	1.6028952598571777
O	-6.349677085876465	0.3071832060813904	0.43893420696258545
O	-3.9421746730804443	2.5349817276000977	-0.5863683223724365
O	-3.6396968364715576	3.735004186630249	-1.170833945274353
O	-4.267706394195557	4.925148010253906	-0.7766116261482239
O	-5.207724094390869	4.829597473144531	0.2311432808637619
O	-5.514664649963379	3.6224324703216553	0.8218823075294495
O	-4.862226963043213	2.517268180847168	0.38311243057250977
O	3.870023250579834	-1.8190298080444336	0.33587729930877686
O	4.0252861976623535	-1.5202263593673706	1.6905215978622437
O	5.404001235961914	-0.7482436299324036	2.1102335453033447
O	5.9623003005981445	-0.1738072782754898	0.6863186955451965
O	6.778702259063721	0.8912728428840637	0.9754369258880615
O	5.285642623901367	-0.16870270669460297	-0.3823282718658447
