36

O	13.351	3.113	5.766
O	14.707	2.965	5.165
O	15.734	4.008	5.582
O	17.08	3.429	5.816
O	18.165	4.084	6.312
O	19.243	3.262	6.391
O	18.852	2.056	5.937
O	19.76	0.907	5.869
O	19.523	-0.134	5.274
O	20.935	1.078	6.562
O	21.984	0.172	6.491
O	22.087	-1.12	5.907
O	23.29	-1.675	6.042
O	23.946	-0.728	6.738
O	23.216	0.391	7.024
O	25.345	-0.884	7.103
O	25.793	-2.326	7.26
O	27.3	-2.398	7.519
O	27.781	-3.86	7.501
O	27.343	-4.609	8.711
O	25.818	-4.663	8.767
O	24.981	-3.061	8.679
O	25.343	-2.302	9.866
O	23.596	-3.335	8.34
O	26.177	-0.169	6.067
O	27.082	0.804	6.452
O	27.857	1.449	5.5
O	27.721	1.15	4.158
O	26.815	0.179	3.765
O	26.048	-0.475	4.724
O	17.485	2.143	5.589
O	16.588	1.114	5.051
O	15.154	1.532	4.947
O	14.792	2.405	3.794
O	15.748	3.001	2.969
O	13.624	2.203	3.085
