36

O	50.429	20.387	-8.574
O	49.898	21.252	-7.797
O	50.795	20.582	-9.889
O	51.006	21.906	-10.406
O	50.509	21.767	-11.801
O	50.418	20.618	-12.594
O	50.017	22.881	-12.362
O	49.873	20.607	-13.905
O	49.501	22.746	-13.667
O	49.363	21.692	-14.478
O	50.781	19.136	-8.24
O	50.665	18.643	-6.839
O	52.032	19.153	-6.064
O	53.333	18.54	-6.709
O	52.108	20.732	-5.94
O	50.669	17.157	-6.973
O	49.373	16.797	-7.67
O	48.217	16.788	-6.879
O	49.328	16.56	-9.021
O	46.972	16.487	-7.446
O	48.093	16.246	-9.607
O	46.915	16.208	-8.806
O	51.707	18.503	-4.31
O	52.905	18.332	-3.476
O	53.636	16.99	-3.643
O	54.87	16.919	-3.605
O	52.606	18.471	-1.978
O	53.837	18.375	-1.107
O	54.692	19.648	-1.245
O	53.186	18.197	0.248
O	52.865	15.926	-3.751
O	53.343	14.533	-3.863
O	52.683	13.822	-5.071
O	51.674	14.31	-5.621
O	53.015	13.809	-2.57
O	53.134	12.778	-5.668
