36

O	3.5645220279693604	-0.7765578031539917	-0.6484293341636658
O	3.434241771697998	0.22429920732975006	-1.3963606357574463
O	4.850460529327393	-1.1395846605300903	-0.27009350061416626
O	6.032970428466797	-0.478147953748703	-0.6473313570022583
O	6.109494209289551	0.9260969758033752	-0.21666637063026428
O	5.472015857696533	1.9750640392303467	-0.8020638823509216
O	6.902422904968262	1.2035455703735352	0.8878568410873413
O	5.57088565826416	3.2670326232910156	-0.3650834262371063
O	7.023808479309082	2.4881746768951416	1.3536827564239502
O	6.361661911010742	3.5218145847320557	0.7327475547790527
O	2.415003538131714	-1.4837093353271484	-0.23014874756336212
O	1.0911931991577148	-1.1880053281784058	-0.5746349692344666
O	0.2776222229003906	0.2054809033870697	0.12584000825881958
O	0.04029110074043274	1.2317793369293213	-0.9910237789154053
O	1.2113488912582397	1.03703773021698	1.2843447923660278
O	0.2638593316078186	-2.298229455947876	-1.0873159170150757
O	0.12478218972682953	-3.428903579711914	-0.1410350352525711
O	-0.8572671413421631	-3.5662336349487305	0.7938093543052673
O	1.0901132822036743	-4.44227933883667	-0.20777177810668945
O	-0.9279561042785645	-4.655305862426758	1.6610950231552124
O	1.043583869934082	-5.526798248291016	0.6372641921043396
O	0.03548271581530571	-5.636364459991455	1.573120355606079
O	-1.3081599473953247	-0.17263354361057281	0.8184241056442261
O	-2.296902894973755	0.5041014552116394	0.05620118975639343
O	-3.6898508071899414	0.28321266174316406	0.4661310911178589
O	-3.9341399669647217	-0.49451059103012085	1.4280434846878052
O	-2.071931838989258	1.9768776893615723	-0.13918113708496094
O	-3.249628782272339	2.471303939819336	-0.9872609376907349
O	-3.088589906692505	3.954084634780884	-1.221760630607605
O	-3.162869930267334	1.730484962463379	-2.3293068408966064
O	-4.765752792358398	0.9105841517448425	-0.18493686616420746
O	-6.152709484100342	0.7540936470031738	0.14015763998031616
O	-6.610278129577637	1.6038165092468262	1.2429288625717163
O	-5.877683162689209	2.401148557662964	1.8858765363693237
O	-6.964025974273682	1.0982646942138672	-1.110751748085022
O	-7.958017826080322	1.5189648866653442	1.602595329284668
