28

O	62.583322997990166	16.98819803617622	49.640390003836266
O	63.26618496064452	17.852103915824888	49.05218266974906
O	64.22000093470214	18.330706900021887	50.04070749871558
O	64.79681803641644	17.619938856838775	51.10491426544575
O	62.79209159334537	18.567752444298645	47.93377476799646
O	62.79969320085089	19.96690249711603	48.318154218888445
O	62.47936648554959	20.80245999195679	47.29389314449756
O	61.460209696242615	20.342112704581194	46.45638242120676
O	61.46110532095781	18.257982993873334	47.54208444007137
O	60.69127589410251	19.26093395197872	46.939899089127934
O	60.74383493041329	16.73498380732447	47.427530524180916
O	59.527421715698445	15.915014954701986	48.31733660974956
O	59.82188564974944	15.99825181915956	49.63941576972534
O	59.345863267277394	14.920165831444677	50.43182154583357
O	58.850157185184315	14.876440136354201	47.75195964336366
O	58.20692983541365	13.952932973973567	48.517333696451416
O	57.26100014702683	13.031090995004803	48.226835624338825
O	57.047331275984035	12.388013882051794	49.335575557221446
O	57.69665015340876	12.945586742076904	50.395858737690546
O	58.373377905895794	14.051427800186714	49.894013811898034
O	57.27699188849119	12.82122945272467	51.705924990388965
O	57.040511007199704	12.483160103840344	52.91078443406599
O	57.65678595293679	13.050234382163566	54.09480096880752
O	58.878764938061366	13.429927468674755	53.833717200929335
O	59.4866489629603	14.722654232860316	54.1638097443689
O	59.51384488984302	14.602733875478323	55.593374046948206
O	58.49751258607802	13.783781980294101	56.24216939969767
O	57.422771184045004	13.317717107097492	55.410974618285756
