28

O	-5.2656989097595215	0.4156416058540344	-2.1302976608276367
O	-4.564642906188965	-0.2694684863090515	-1.3677088022232056
O	-3.413489818572998	-0.9396936893463135	-1.8623156547546387
O	-3.000629425048828	-0.8656948804855347	-3.2473127841949463
O	-4.958049297332764	-0.36541417241096497	0.0497167631983757
O	-6.075920104980469	0.28718140721321106	0.523198127746582
O	-6.4609599113464355	0.21019217371940613	1.8455867767333984
O	-5.660166263580322	-0.5627902150154114	2.6800050735473633
O	-4.1701812744140625	-1.1302201747894287	0.8871875405311584
O	-4.545994758605957	-1.214141607284546	2.2116076946258545
O	-2.7269246578216553	-1.9656952619552612	0.2487882524728775
O	-1.2760679721832275	-0.9304289221763611	0.3657602071762085
O	-0.08982589095830917	-1.4464308023452759	-0.08969774842262268
O	1.100804090499878	-0.7502264976501465	-0.05576641112565994
O	-1.2880170345306396	0.33303147554397583	0.8792773485183716
O	-0.1015976294875145	1.0697367191314697	0.9304637312889099
O	0.18191523849964142	2.3138678073883057	1.3746917247772217
O	1.4711264371871948	2.5528292655944824	1.2031702995300293
O	2.0656354427337646	1.48256254196167	0.6466254591941833
O	1.079770565032959	0.5449889302253723	0.47248396277427673
O	3.4835205078125	1.3683339357376099	0.30549880862236023
O	3.977604389190674	0.29080986976623535	-0.23301386833190918
O	5.381808280944824	0.12627097964286804	-0.5916407108306885
O	6.293246269226074	1.0868589878082275	-0.3928431570529938
O	7.584137916564941	0.9539538621902466	-0.7150865793228149
O	8.02733325958252	-0.2151816040277481	-1.2799705266952515
O	7.133458614349365	-1.2314934730529785	-1.5049512386322021
O	5.817805767059326	-1.0389797687530518	-1.1534565687179565
