35

O	-1.954942226409912	0.03619982674717903	-0.29714593291282654
O	3.2812483310699463	0.7757429480552673	1.524048089981079
O	2.7090718746185303	1.0526793003082275	-0.8342081904411316
O	0.02666121907532215	-0.3895415961742401	-1.0458489656448364
O	-1.2563753128051758	-0.7196475863456726	0.6160058379173279
O	4.888449668884277	0.30341434478759766	-0.20031441748142242
O	4.228124618530273	1.2264324426651	2.5238821506500244
O	5.4865288734436035	-0.23194417357444763	0.9783705472946167
O	3.8615469932556152	1.531819224357605	0.1750117391347885
O	5.779688835144043	0.8919469118118286	2.1292073726654053
O	1.3480756282806396	-1.90682053565979	-2.4488797187805176
O	1.6596256494522095	-2.736311435699463	-1.3478307723999023
O	-5.018239498138428	2.1645240783691406	-0.2376064509153366
O	2.2139267921447754	-4.384631633758545	0.8206019997596741
O	0.913131833076477	-4.211822509765625	0.4138656556606293
O	3.251112461090088	-3.751316785812378	0.16815543174743652
O	-5.573950290679932	-0.03399068862199783	0.5576686859130859
O	-4.265758037567139	-0.3966485261917114	0.36890196800231934
O	0.6794573664665222	-3.3903117179870605	-0.6606693863868713
O	2.9484667778015137	-2.9273407459259033	-0.9195789098739624
O	-3.692932605743408	1.8083409070968628	-0.43182146549224854
O	-5.937510967254639	1.2587424516677856	0.24759237468242645
O	-3.3498613834381104	0.5091182589530945	-0.11546560376882553
O	-7.172384262084961	1.9088499546051025	0.33113810420036316
O	5.932785987854004	2.179615020751953	1.1149842739105225
O	1.2251983880996704	-0.3359510898590088	-2.1078808307647705
O	-6.952149391174316	3.161564350128174	-0.1012197732925415
O	-0.0486929789185524	-0.9431045055389404	0.0899985134601593
O	-5.680817604064941	3.316926956176758	-0.4386548101902008
O	-1.1361310482025146	0.23512277007102966	-1.3350813388824463
O	-8.38015365600586	1.3175302743911743	0.7856534719467163
O	7.279502868652344	2.1008596420288086	0.6199067234992981
O	2.409716844558716	-0.2589529752731323	-1.050179123878479
O	2.1977477073669434	2.090070962905884	-1.330935001373291
O	-1.9001697301864624	-1.2511643171310425	2.1655848026275635
