83

O	1.047047421644927	-0.31013582581159443	-0.41997159879710155
O	0.8833373816449271	1.0748089311884055	-0.9512753727971015
O	-1.1842226393550728	-2.9260275348115945	1.5475131222028986
O	0.06545434264492722	2.0942489951884053	-0.5098314027971015
O	1.140008991644927	-1.9798469848115945	2.0850216722028985
O	0.8058895916449272	-3.2679571948115944	0.23628146720289847
O	-0.5418696903550728	1.5102819851884055	0.6393859732028985
O	0.22900433164492717	-0.18754344081159452	2.194233632202898
O	-0.04329162735507275	-0.8616620648115945	0.13857210920289847
O	1.598206671644927	-0.6034446048115945	2.1535487722028983
O	-0.29152904535507274	0.18836805918840552	0.9830867922028985
O	-0.3765098653550728	0.16710874718840552	3.365950292202898
O	-0.14351701335507283	-1.3325950948115945	3.8612301922028984
O	-0.032102299355072805	-2.3593896648115944	0.9748183122028986
O	0.6330883316449273	9.516391335188406	1.6495162222028985
O	-1.6513614503550729	7.3088912651884055	-0.43646513979710155
O	-0.49343669035507276	7.628232025188406	-4.047236407797102
O	-1.8084742623550727	6.838891185188405	-7.497303757797102
O	-1.8201625443550729	10.427881495188405	-8.734677737797101
O	-3.625340688355073	11.673390095188406	-5.605050567797102
O	-6.199073858355073	8.870662665188405	-5.673943187797102
O	-8.327899498355073	7.970050605188406	0.8126804302028985
O	-9.395265248355072	5.814088735188406	3.750986562202898
O	-7.704323218355072	2.5100176551884057	4.3454672922028985
O	-4.196406518355072	3.331048635188406	5.703867352202899
O	-3.9051094883550728	4.277995385188405	9.4017056122029
O	-0.07049808535507274	4.118001385188405	9.449054682202899
O	2.564515141644927	2.3933798451884054	7.277828242202898
O	5.753508421644928	3.973855475188406	5.993778292202898
O	8.371926151644928	3.7472148151884057	3.2836696722028984
O	10.819783421644928	6.209196255188406	1.8106617322028984
O	14.013355921644928	5.940590485188405	3.7979196122028984
O	4.981155321644928	12.269635595188406	-2.286936227797102
O	12.197164821644927	11.103754695188405	3.954033032202898
O	9.459290621644927	8.777076235188405	5.182627622202898
O	10.520029621644927	6.095852475188406	7.708212072202898
O	12.927917121644928	1.3141864151884055	2.8599440722028984
O	12.800901021644927	2.2008831851884056	-0.8228525617971015
O	9.060935411644927	1.5578376151884055	-1.1197001077971016
O	5.988847081644928	0.5727953521884055	0.8648305132028985
O	3.151003701644927	2.8147467451884056	1.4446361322028984
O	0.7231131116449273	4.262286525188405	3.970409792202898
O	-1.0034132908550728	7.370998095188406	5.192146332202898
O	-4.732048928355073	7.690483585188406	4.673433522202898
O	-13.019417578355073	4.470889155188406	6.401694362202898
O	-10.102065338355072	3.7382267351884058	10.741235042202899
O	-4.593156568355073	-13.187021604811594	0.41270973820289847
O	-7.865674028355072	-11.812859204811595	1.7483988422028984
O	-8.984853458355072	-6.234203204811594	5.034635022202898
O	-11.614179978355072	-3.703781004811594	-0.7462740417971016
O	-8.893659238355072	-2.127629044811594	-2.853447627797102
O	-5.994286598355073	-0.3521908538115945	-1.2118752177971015
O	-3.749390808355073	-3.133918224811594	0.1430386522028985
O	-1.4007858433550728	-4.903850064811595	-2.2201740977971016
O	0.5037344116449273	-6.810886744811595	0.5467989102028985
O	1.1347990916449273	-5.8962059348115945	4.197266712202898
O	1.0643906816449271	-8.538002524811594	6.9675014722028985
O	3.5144421216449273	-13.121038304811595	8.6931673022029
O	3.4182294116449268	-13.533554904811595	4.901068312202899
O	2.579259571644927	-17.246714204811596	5.175195712202898
O	-0.6375378693550728	-4.694452794811594	11.2544829422029
O	-2.9230041083550726	-5.117551814811594	8.3255328822029
O	-2.9899115383550727	-5.761034754811594	4.563720192202898
O	-4.598494448355073	-7.963411794811595	1.8817701922028984
O	-6.926004848355072	-6.197027624811595	-0.5272045627971015
O	-8.559243208355072	-7.1502419548115945	-3.810354877797102
O	-12.239210078355072	-7.483781424811594	-2.9645330777971015
O	-7.9176696983550725	0.21779944718840552	-6.847002677797102
O	-5.958954678355073	2.4846668851884055	-9.190198337797101
O	-4.355146438355073	-0.5687783248115945	-10.740088157797102
O	-3.0911567583550728	-1.7467482748115943	-7.364555597797102
O	-1.621428888355073	1.6995679751884054	-6.604614887797101
O	0.02259957764492726	1.8941986451884054	-10.0032360277971
O	1.5847842916449273	-1.5761065848115945	-9.704141867797102
O	2.752472561644927	-0.6877883148115946	-6.223792787797102
O	4.364991931644927	2.5917483151884055	-7.3505928777971015
O	6.100584381644928	0.8100378371884055	-10.246545157797101
O	7.701148361644927	-1.6382109148115946	-7.8264088677971015
O	5.9503994816449275	-4.641886234811595	-9.4263650677971
O	4.360364811644928	-5.905563244811594	-6.2148066677971014
O	7.822957651644927	-5.925085114811594	-4.579277697797102
O	9.206752921644927	-7.855912954811595	-7.575574417797101
O	6.919599281644928	-10.972012904811594	-3.660394787797102
