14

O	-16.518	43.838	-5.489
O	-17.318	43.425	-4.481
O	-13.508	44.961	-6.532
O	-17.446	44.235	-3.419
O	-14.748	47.139	-6.608
O	-15.54	45.235	-8.041
O	-16.795	45.454	-3.329
O	-15.302	47.117	-4.302
O	-15.845	45.041	-5.455
O	-14.315	47.511	-5.284
O	-15.961	45.901	-4.368
O	-15.417	47.972	-3.108
O	-16.705	48.796	-3.122
O	-14.834	45.484	-6.802
