28

O	-6.24119234085083	-0.5988167524337769	1.0407077074050903
O	-6.1215009689331055	-0.9374059438705444	-0.4388766586780548
O	-6.917114734649658	-2.1541404724121094	-0.7608134746551514
O	-6.60764741897583	0.3027120530605316	-1.1881115436553955
O	-4.662663459777832	-1.1881362199783325	-0.8292592763900757
O	-3.8390953540802	0.0335652157664299	-0.5592173337936401
O	-3.9117941856384277	0.8878592252731323	-1.4777147769927979
O	-3.082109212875366	0.14646783471107483	0.6273858547210693
O	-2.967926263809204	-0.7265732288360596	1.6378121376037598
O	-2.7207117080688477	0.2712129056453705	2.964116334915161
O	-3.7688755989074707	1.3205814361572266	2.552121639251709
O	-1.4324369430541992	0.9438733458518982	2.1644575595855713
O	-2.2520394325256348	1.4611687660217285	0.8244729042053223
O	-1.0988527536392212	1.095951795578003	-0.22084906697273254
O	-1.0463353395462036	0.0815260261297226	-0.8436591625213623
O	-0.13039584457874298	2.0848045349121094	-0.3528457283973694
O	0.998843789100647	2.1474881172180176	-1.1363009214401245
O	2.2169265747070312	1.4422764778137207	-0.8307168483734131
O	2.454240560531616	0.6455186605453491	0.26510465145111084
O	3.68552303314209	0.008391305804252625	0.472228467464447
O	3.281493663787842	1.5747584104537964	-1.7236158847808838
O	4.481252670288086	0.9620952010154724	-1.5346639156341553
O	4.706429481506348	0.18134275078773499	-0.45422500371932983
O	5.988243103027344	-0.4909825026988983	-0.21786931157112122
O	7.043801307678223	-0.42937934398651123	-0.9965459704399109
O	8.005988121032715	-1.1370948553085327	-0.4968407154083252
O	7.603512287139893	-1.6992402076721191	0.653414785861969
O	6.334437847137451	-1.3128154277801514	0.8603034019470215
