64

O	7.746795575244444	-5.435748669694445	-1.6155636818333332
O	7.688342105244444	-4.014552659694445	-2.0780049558333333
O	8.886456825244444	-3.2986069096944446	-1.4762483378333333
O	7.879648115244444	-3.989181359694445	-3.559038595833333
O	6.472285375244444	-3.3645775096944446	-1.5574951548333331
O	5.426984055244444	-3.436215629694445	-2.651297545833333
O	5.825749455244444	-2.866776839694445	-3.719069345833333
O	4.112010905244444	-3.191498949694445	-2.117783045833333
O	3.876556125244444	-2.017893000694445	-1.3064013788333333
O	2.435051805244444	-1.883043250694445	-1.0268057700133333
O	1.9885924452444441	-0.6463811066944448	-1.3771800838333332
O	1.8158875652444442	-3.056821119694445	-1.694785254833333
O	2.8419792152444443	-3.5825283996944446	-2.645180995833333
O	2.708666165244444	-5.020283959694445	-2.947643375833333
O	3.5400086552444443	-5.901605569694445	-2.6495106458333333
O	1.727829125244444	-5.363235659694445	-3.8974407258333335
O	1.417540495244444	-6.663830659694445	-4.409967915833334
O	0.09518815064444401	-7.021345039694445	-3.834335935833333
O	-0.933358174755556	-7.6200211796944455	-4.496786405833333
O	-2.049318514755556	-8.053892869694444	-3.784043505833333
O	0.175715126294444	-7.341712679694445	-2.511520475833333
O	-0.9690524347555559	-7.710532939694445	-1.8902468158333332
O	-2.214654264755556	-7.751492559694445	-2.431509755833333
O	-3.294821354755556	-8.289560869694444	-1.6297157088333332
O	-4.180273784755556	-7.663274999694445	-0.8734217388333332
O	-5.349470924755557	-8.219499799694445	-1.1871104068333331
O	-4.998747094755556	-9.534302079694443	-1.198176832833333
O	-3.801008584755556	-9.550576249694444	-1.790975012833333
O	5.785852515244444	5.692732250305555	6.761989444166667
O	5.336578825244444	5.089935180305555	3.0680672341666666
O	7.379607435244444	7.186631670305554	0.6254894341666668
O	9.574703385244444	4.9660073703055545	-1.5994933608333333
O	8.375246225244444	6.571277090305555	-4.867670745833333
O	8.612131875244444	3.499807770305555	-7.119255535833333
O	5.567721295244444	4.827324470305555	-9.026277385833332
O	2.8659153552444443	2.184855810305555	-9.511937095833332
O	-0.663548692755556	3.122586700305555	-8.427934105833334
O	-3.457024074755556	0.569810880305555	-8.988343125833334
O	-6.1385032147555565	0.5276390503055552	-6.341099365833333
O	-9.442801944755555	-1.2352447686944448	-5.6482235958333336
O	-9.935754114755555	-2.1612809096944448	-2.002265459833333
O	-7.342000354755556	-6.627591419694445	7.254712364166667
O	-5.472213674755556	-4.114228469694445	5.088141994166667
O	-2.301371234755556	-2.8502172396944445	6.751185764166666
O	0.568197606244444	-1.296738899694445	4.7747484941666665
O	2.9111873252444442	1.008085920305555	6.7088180841666665
O	6.350108085244444	0.0930861003055552	5.362044564166666
O	9.316279655244445	2.448427900305555	4.746270314166667
O	10.411891785244444	2.2052347603055553	8.423346794166667
O	2.685138785244444	-5.056333239694445	7.371027924166667
O	-0.520589573755556	-7.086668829694445	7.217855584166666
O	-1.966552734755556	-8.202622769694445	3.913135404166667
O	-4.518430374755557	-10.892631639694445	2.850992234166667
O	-7.951096594755556	-10.263160289694444	4.289313534166666
O	-7.691955434755556	-5.028586399694444	-7.340260625833333
O	-4.314254884755556	-4.454918989694445	-5.976657605833333
O	-0.989300464755556	-3.035809259694445	-7.0624883658333335
O	0.44964802324444403	-0.35984943169444483	-4.7671316458333335
O	2.507346835244444	2.818285020305555	-5.177978105833334
O	2.2425168552444443	4.599950010305555	0.1488675841666669
O	0.216085444444444	4.510628300305555	3.3759555841666664
O	-2.569874874755556	2.049064730305555	4.183640884166667
O	-5.393165554755556	5.986213440305555	2.4986707841666664
O	-10.487719514755556	2.708298130305555	-1.5572578768333332
