33

O	-8.001240730285645	1.7354373931884766	0.07388509064912796
O	-6.583540439605713	1.559466004371643	0.46784594655036926
O	-5.974854469299316	2.592392921447754	0.835314154624939
O	-5.863803863525391	0.35317933559417725	0.46829280257225037
O	-4.377340316772461	0.48188042640686035	0.9361691474914551
O	-4.190103530883789	-1.1103724241256714	1.315568208694458
O	-2.7701334953308105	-1.2512671947479248	1.8230313062667847
O	-4.507757663726807	-1.913341999053955	0.13537652790546417
O	-5.101542949676514	-1.3337340354919434	2.496326208114624
O	-3.7164430618286133	0.3636970818042755	-0.5034705400466919
O	-4.3946919441223145	0.1649387776851654	-1.4782800674438477
O	-2.309069871902466	0.5218379497528076	-0.4359091818332672
O	-1.3091959953308105	0.7465679049491882	0.42370182275772095
O	-0.8548230528831482	2.209304094314575	-0.14914782345294952
O	-2.2340281009674072	2.8085477352142334	-0.3519531786441803
O	-0.6703487634658813	1.7495299577713013	-1.6922962665557861
O	-1.571384072303772	0.4075568616390228	-1.7984317541122437
O	-0.4730132520198822	-0.6732434034347534	-1.4185229539871216
O	-0.35744473338127136	-1.147099256515503	-0.3220194876194
O	0.4216122329235077	-1.102290391921997	-2.431257963180542
O	1.4752728939056396	-2.099123001098633	-2.1880059242248535
O	2.6087424755096436	-1.496508240699768	-1.4556912183761597
O	3.4012551307678223	-2.3176069259643555	-0.6967695951461792
O	4.476373195648193	-1.7667900323867798	0.00040942319901660085
O	2.884420394897461	-0.12556156516075134	-1.5233995914459229
O	3.9581005573272705	0.3798891305923462	-0.8190413117408752
O	4.763124942779541	-0.4268651604652405	-0.05210154503583908
O	5.90290641784668	0.12234820425510406	0.7012934684753418
O	6.495920181274414	1.7142788171768188	0.8245257139205933
O	7.795490264892578	1.4052761793136597	1.8899009227752686
O	7.700389862060547	0.10599267482757568	2.0886707305908203
O	6.76244592666626	-0.5791609883308411	1.5096222162246704
O	6.614706516265869	-2.0791568756103516	1.71012544631958
