33

O	10.766	54.125	95.758
O	11.705	54.301	94.559
O	11.948	55.408	94.083
O	12.217	53.183	94.06
O	12.027	51.784	94.493
O	12.583	50.967	93.344
O	13.23	49.787	93.853
O	13.621	51.85	92.707
O	13.103	53.265	92.887
O	12.419	53.621	91.697
O	11.231	53.368	91.571
O	13.15	54.142	90.684
O	14.597	54.501	90.716
O	14.781	55.45	89.558
O	14.438	56.777	89.962
O	13.797	54.967	88.524
O	12.594	54.454	89.314
O	12.149	53.271	88.696
O	12.627	52.184	89.034
O	11.219	53.393	87.706
O	10.733	52.214	86.975
O	11.546	51.99	85.826
O	11.492	50.745	85.183
O	12.271	50.476	84.057
O	12.412	52.958	85.303
O	13.195	52.691	84.17
O	13.131	51.46	83.531
O	13.897	51.253	82.444
O	15.528	51.743	82.238
O	15.678	51.142	80.71
O	14.509	50.587	80.363
O	13.536	50.649	81.298
O	12.154	50.045	81.012
