33

O	10.966620782325865	53.79880422320983	93.54144911841608
O	12.268662836391965	54.529692132840665	93.4666919235132
O	12.454695475180742	55.1835637861794	94.55273484721485
O	12.673469865681522	54.9670512094477	92.18760366844639
O	14.044072892884643	55.12251797657674	91.83624554988032
O	14.034913436155168	55.915860834324505	90.6413359613012
O	14.411295633974474	57.14214018659905	90.47887010593666
O	12.97883243834707	55.29823991957987	89.79226874549974
O	12.06058774596725	54.66031939112237	90.87019868309702
O	12.439449164764788	53.20151023478508	91.01085364966742
O	11.424791883682365	52.54763444627374	91.12525626172416
O	13.486264051953615	53.29885078622915	90.07884862378836
O	14.763760513793056	53.99673220543868	90.0453074353319
O	15.063431672907097	54.673323474023334	88.76088603409953
O	15.531824829835818	55.91587916858529	88.52065138245582
O	13.99592203134409	54.153742459615195	87.87293999721616
O	12.998206366801126	53.51070979492805	88.7081838205171
O	11.976445206275862	52.59130441435254	88.33692054642732
O	11.775495008907498	51.446450439364625	88.8553348325424
O	10.892001356696197	53.05550986150598	87.57016658040592
O	10.256319992330495	52.063650996178126	86.69329166073392
O	11.246435001752657	51.77272396266652	85.64137900402126
O	10.809746091025822	51.785627736138245	84.35606633097332
O	11.604111135093984	51.75711006022242	83.23217890014405
O	12.611446229271145	51.80210875433306	85.73156775690468
O	13.262479669018546	51.114810574289734	84.6930050586255
O	12.925236086150385	51.43708276349318	83.41505069819466
O	13.874386207235034	51.12819398982278	82.36777895630377
O	15.460010290901783	51.744293618760494	82.09927680548107
O	15.615522566825724	51.27173718358803	80.45148204971152
O	14.605719112328387	50.42050255766628	80.31935215871583
O	13.625295757719199	50.46011990963047	81.20305862248304
O	12.404870962235417	49.59027307550354	81.05007288434797
