41

O	8.409318723314271	54.73846334301597	97.1192548166024
O	9.723686889608516	55.17144785120187	96.54292127062665
O	10.256361362781181	56.172807282875304	97.07441013580545
O	10.022911120439257	54.977028202431896	95.18001863948783
O	11.469780257728214	55.093411526402114	94.67897019220078
O	11.997074367769272	53.86683586564118	95.46990529347417
O	13.324410616046688	53.34492998996029	95.06870870969287
O	12.300116639249815	54.346547077507836	96.82799922187665
O	10.978162413762393	52.8671917445714	95.91403200784295
O	11.268625031957743	54.69624237825947	93.29318286779956
O	10.887319442136096	55.434918690416985	92.36838894775971
O	12.59725466407194	54.160555991268645	93.08402669799432
O	12.544636303101568	52.994895186632846	92.30782177023298
O	11.643648047186646	51.93961697937788	92.81754335090793
O	10.19022327797714	52.3688810563556	93.08050585177098
O	11.285301991355176	51.05950575816868	91.66092523971255
O	12.14905061430731	50.84478472315025	93.71295127389627
O	11.969400803290398	53.63844751003582	91.11286759612035
O	10.742168213457589	53.469354535440814	90.92628175889722
O	12.855242259277123	54.47367069947613	90.43153070594225
O	14.120991902363022	55.016510257621036	90.82632930825561
O	14.76645693888981	55.533810834813316	89.54601842650693
O	14.778075584353475	56.90790879987299	89.68601033603574
O	13.94713735515893	55.03573444149869	88.39735577668989
O	12.576405047346618	54.78026039195052	89.01364607163939
O	11.830491604119803	53.688090516826655	88.35859594500488
O	11.981358925644102	52.5323838625477	88.87693957996868
O	10.691185509914973	53.76293819697502	87.52095550152399
O	10.461505865915882	52.62306568659909	86.62988441518803
O	11.375940853179305	52.65110683568159	85.44100539356657
O	12.652643971325947	52.181206893139596	85.53765410334516
O	13.47254039861987	52.41626084103102	84.4304023617783
O	10.81715312686599	52.401776010326344	84.18839855893332
O	11.679694578237182	52.74883316912658	83.13344520587066
O	12.916092840279841	52.093552463401146	83.20645454557781
O	13.752789726581685	51.72299311585914	82.07328493713962
O	15.398740455713279	52.144300616420395	81.74950365281465
O	15.449854079884272	51.63058261765925	80.09521799852105
O	14.427736273312746	50.74031669960846	80.12703348403085
O	13.396013302663375	51.145732183971674	80.86402286203683
O	12.02116393731525	50.58043349712618	80.6355526882065
