41

O	11.214	53.673	97.541
O	11.492	55.178	97.694
O	12.108	55.582	98.682
O	11.003	56.016	96.753
O	10.288	55.578	95.528
O	9.104	56.496	95.219
O	9.552	57.905	94.842
O	8.228	56.582	96.484
O	8.254	55.868	94.11
O	11.378	55.433	94.43
O	12.304	56.227	94.312
O	11.32	54.284	93.776
O	12.358	53.834	92.869
O	12.627	52.35	93.25
O	13.641	51.693	92.289
O	11.318	51.5	93.253
O	13.227	52.31	94.681
O	11.939	54.054	91.416
O	10.788	53.841	91.087
O	12.89	54.453	90.535
O	14.307	54.813	90.749
O	14.694	55.649	89.522
O	14.386	57.034	89.741
O	13.846	55.19	88.425
O	12.552	54.676	89.094
O	12.114	53.5	88.459
O	12.585	52.421	88.789
O	11.202	53.62	87.454
O	10.755	52.442	86.69
O	11.573	52.289	85.526
O	12.488	53.256	85.066
O	13.282	53.019	83.92
O	11.471	51.101	84.791
O	12.253	50.871	83.644
O	13.174	51.838	83.185
O	13.941	51.643	82.086
O	15.596	52.157	81.887
O	15.77	51.541	80.38
O	14.621	50.966	80.023
O	13.621	51.021	80.942
O	12.253	50.381	80.617
