27

O	6.331063747406006	-0.8629031777381897	-1.2460016012191772
O	5.121767520904541	-0.4611426889896393	-1.5442063808441162
O	4.338885307312012	-0.43555811047554016	-0.40684178471565247
O	5.173093795776367	-0.8546323776245117	0.6123483180999756
O	4.844548225402832	-1.0158809423446655	2.068009853363037
O	4.6818695068359375	-0.09291114658117294	-2.9081902503967285
O	2.9391872882843018	-0.07495967298746109	-0.2606141269207001
O	1.940563678741455	-1.0202150344848633	-0.13110487163066864
O	-1.1685254573822021	1.0564857721328735	-0.0115419402718544
O	-3.0297439098358154	2.171935558319092	-0.027283797040581703
O	-2.2080135345458984	0.14054720103740692	0.16204440593719482
O	6.388767719268799	-1.107792854309082	0.05572715774178505
O	2.5343101024627686	1.240628957748413	-0.288569837808609
O	1.2192271947860718	1.6083955764770508	-0.19600069522857666
O	0.23124292492866516	0.6529977321624756	-0.06808774173259735
O	0.6117307543754578	-0.6709557771682739	-0.035252198576927185
O	-1.6929692029953003	2.2871522903442383	-0.1239171028137207
O	-3.3267323970794678	0.868386447429657	0.14609427750110626
O	-4.055904388427734	3.0735349655151367	-0.07617999613285065
O	-5.353272914886475	2.726794719696045	0.03963647410273552
O	-5.617703914642334	1.419497013092041	0.21217258274555206
O	-4.613397598266602	0.5109333395957947	0.2632313072681427
O	-2.0429718494415283	-1.2415711879730225	0.32776305079460144
O	-3.0672988891601562	-2.2206003665924072	0.4942484200000763
O	-3.9627530574798584	-2.2819602489471436	-0.7115426063537598
O	-3.856466054916382	-1.8523931503295898	1.7465596199035645
O	-2.360504150390625	-3.563812494277954	0.6968756914138794
