40

O	2.327683210372925	0.8311430811882019	1.3086398839950562
O	3.117316961288452	0.7071689367294312	0.22789105772972107
O	7.333595275878906	0.09210669249296188	0.15853764116764069
O	6.6128129959106445	0.1619320958852768	-1.0035583972930908
O	5.235705852508545	0.35945460200309753	-1.0123143196105957
O	4.557276725769043	0.4913778305053711	0.17673100531101227
O	6.658273220062256	0.22354745864868164	1.3480820655822754
O	5.28759765625	0.4200005829334259	1.3394492864608765
O	-7.007420539855957	-0.6231674551963806	-2.1425726413726807
O	-6.937238693237305	-1.9880342483520508	-2.327859401702881
O	-5.898109436035156	-2.7534518241882324	-1.8739632368087769
O	-4.88469934463501	-2.1062021255493164	-1.2024041414260864
O	2.227787733078003	0.8431797623634338	-0.8255778551101685
O	-6.910024642944336	1.9742302894592285	-0.4599931836128235
O	-1.2184077501296997	0.5101965665817261	1.266369342803955
O	-0.047054845839738846	1.2194676399230957	2.0319020748138428
O	1.0694382190704346	1.0265588760375977	0.9754452109336853
O	0.25358742475509644	-0.03638805076479912	2.9818761348724365
O	0.5918921828269958	-1.2341804504394531	2.284122943878174
O	-0.5199514031410217	-2.008660078048706	1.8853731155395508
O	-0.3963904082775116	-3.199981451034546	1.2294995784759521
O	0.837388813495636	-3.6984736919403076	0.9279745817184448
O	1.9484951496124268	-2.9928691387176514	1.289220929145813
O	1.7833571434020996	-1.7994118928909302	1.947118878364563
O	0.9920686483383179	1.0358545780181885	-0.3374590277671814
O	-4.888328552246094	-0.724989652633667	-0.9775139689445496
O	-5.960416793823242	-0.009608769789338112	-1.4580272436141968
O	-5.950297832489014	1.394965648651123	-1.226807713508606
O	-5.845815658569336	-4.507489204406738	-2.1251275539398193
O	-3.761399507522583	-0.2064976841211319	-0.26433688402175903
O	-3.444749593734741	0.9741403460502625	0.11492271721363068
O	-2.2395598888397217	1.3620812892913818	0.8484622240066528
O	-2.1411314010620117	2.5854554176330566	1.1124439239501953
O	-6.67022180557251	3.2945897579193115	-0.4076767563819885
O	-5.58771276473999	3.4827868938446045	-1.1328518390655518
O	-5.15098762512207	2.3403143882751465	-1.6279832124710083
O	7.503546714782715	0.0037062447518110275	-2.006647825241089
O	8.718602180480957	-0.1579935997724533	-1.532317876815796
O	8.656476020812988	-0.10971314460039139	-0.20180431008338928
O	9.747015953063965	-0.24044175446033478	0.6927346587181091
