40

O	11.160892563954878	18.709778143034573	-39.09474841711936
O	10.317033008624684	18.378779247751048	-40.04448859253744
O	6.982435850318041	15.884712247976196	-39.397291389915054
O	7.463368597623245	16.114476539387553	-40.68001890286373
O	8.51902902854853	16.976800383621132	-40.95858844184372
O	9.109061055889242	17.669801655538972	-39.91301968872986
O	7.371726155768332	16.89505082153931	-38.50650642694953
O	8.620462717709525	17.42875478917359	-38.67139965222689
O	19.9073509832038	16.90594684978609	-41.07468135353237
O	20.70593830109305	17.341118573808018	-39.974441129102615
O	20.22652150544179	17.886948700820117	-38.82371875374203
O	18.934034140880865	18.27337466767319	-38.87593197128628
O	10.717574775443909	18.914593594002767	-41.26419387126089
O	17.414683963134127	17.13104946547302	-43.36579555589944
O	14.366900485363328	19.58594254514468	-39.45921655261455
O	13.109676683335488	20.05522378963607	-39.11586789397205
O	12.227331131545489	19.0927878932052	-39.786753198282184
O	12.50551174650752	21.349674460566074	-38.87102991211954
O	10.973876257561873	20.985709010522314	-38.76105862886752
O	10.358260617687165	21.967815865817343	-39.46541808140507
O	9.017780188737497	21.958220042177263	-39.57014425371529
O	8.30242490785085	21.380487697485755	-38.55673910478773
O	9.027257106973988	20.997777278550977	-37.468235068196485
O	10.375171373579672	20.87580171222961	-37.50650330433775
O	12.09732086975377	18.85569760203804	-41.11808812570123
O	18.228456116749	18.167245544593133	-40.08226662630706
O	18.55043560177571	17.247965547864013	-41.09320960784218
O	17.596422350203497	16.816241015783984	-42.058031498943556
O	21.330541443795962	18.09039314890626	-37.48452340854993
O	16.81938070492816	18.321236487783203	-39.91195170022278
O	16.15975490944973	18.0743243528832	-38.82511106392213
O	14.776302502570534	18.428769904171876	-38.8315044445085
O	13.978360554832271	17.758283144589065	-38.18920240018018
O	16.634470850316347	16.093806873996677	-43.77941582290319
O	15.783818055003621	15.935290177030542	-42.764184549236205
O	16.337495093219847	16.460790951981732	-41.69967815147578
O	7.420297036431191	14.860432572401148	-41.162772259646275
O	6.321118942663343	14.267802720544122	-40.65681292120533
O	6.120333385858062	14.81941901550932	-39.42421837473407
O	4.915351623498635	14.808298585230055	-38.64489857144802
