40

O	10.464	18.392	-38.812
O	9.658	17.495	-39.492
O	6.405	15.514	-37.545
O	6.977	14.982	-38.717
O	8.067	15.587	-39.337
O	8.623	16.733	-38.768
O	6.997	16.638	-36.97
O	8.089	17.233	-37.575
O	19.743	16.86	-40.928
O	20.577	17.309	-39.913
O	20.063	18.134	-38.933
O	18.734	18.505	-38.93
O	10.051	17.442	-40.795
O	17.847	16.86	-43.398
O	13.724	19.449	-39.549
O	12.348	19.915	-39.376
O	11.314	18.876	-39.703
O	12.095	21.227	-40.144
O	10.759	21.864	-39.835
O	10.038	22.501	-40.837
O	8.817	23.092	-40.559
O	8.302	23.067	-39.277
O	9.004	22.44	-38.272
O	10.224	21.843	-38.547
O	11.085	18.328	-40.918
O	17.877	18.038	-39.934
O	18.39	17.194	-40.94
O	17.599	16.856	-42.078
O	21.117	18.752	-37.69
O	16.473	18.475	-39.862
O	15.665	18.219	-38.835
O	14.251	18.612	-38.631
O	13.57	18.155	-37.711
O	16.829	16.369	-44.048
O	15.928	16.019	-43.095
O	16.377	16.291	-41.908
O	6.256	13.879	-39.036
O	5.225	13.676	-38.161
O	5.259	14.641	-37.241
O	4.345	14.723	-36.255
