61

O	-2.0537403173000004	0.3775483128666677	-1.31869450131
O	0.3996882766999999	3.7686419118666676	-1.2310013213100004
O	-0.3958934973	3.6587497858666675	1.8319187146899998
O	1.4322056396999998	2.0678181848666677	1.7000257106899999
O	3.1338786926999997	3.7635594818666673	2.45236673869
O	1.2220606817	1.0892555128666674	-0.3835462113100001
O	-1.1237518673000002	2.9196965676666675	0.8671804106899998
O	2.8197123527	2.6830905408666674	1.5703579696899999
O	5.6425694727	4.885194022866667	3.7102616286899996
O	3.9331532126999997	3.1174071158666674	3.4657271486899996
O	0.6873328506999998	3.0450871418666674	2.28242988869
O	-0.048169218300000094	5.0540147128666675	1.3051850796899997
O	-0.7531277773000001	1.6338462328666676	0.4967487626899998
O	0.7338666996999998	5.415514412866667	0.3795132886899998
O	1.4157425407	4.451948072866667	-0.5684164013100002
O	-0.5352769573000001	4.6739388728666675	-1.6837910913100003
O	0.6093406976999999	1.5177564728666675	0.7169808056899998
O	-0.6248369973000002	5.9948523128666675	-1.3658690613100002
O	3.8187110026999997	3.9387903828666673	4.70320270869
O	-0.8497360373000001	6.836190402866667	-2.46962261131
O	4.3188316727	5.255491262866668	4.238064908689999
O	6.0821854227	6.0747944628666675	3.03955864869
O	5.4549787727000005	7.338983592866667	3.5456516086899996
O	6.4249078827	4.733467082866667	4.90916782869
O	7.0883112727	3.405446888866668	5.07378496869
O	3.6005202426999996	5.911158182866668	3.1208573086899998
O	3.6029175927	4.989720752866667	1.96390244969
O	-1.7728137773000001	6.351434372866668	-3.3427649113099998
O	-1.8091591773000002	5.0008339328666676	-3.5468134213100004
O	-1.5226116673	4.174637342866667	-2.44015967131
O	-1.5603064173	1.3102914528666676	-0.7039684613100001
O	8.0174349227	-0.5801005071333325	-4.01377927131
O	8.7539590327	-3.1912805471333328	-1.4374967513100003
O	5.336067802700001	-4.840678467133332	-1.93276439131
O	4.3504232727	-7.690247067133333	0.36491619668999986
O	-0.8963464473000001	-4.785470977133333	1.7504993736899999
O	2.4589895627	-3.583696327133332	2.8431485086899997
O	5.1199436627	-1.3189858171333326	1.0130939919899997
O	8.3375057127	0.5540804328666677	1.5443488376899999
O	7.4965697327	3.3387183768666677	-1.01061480131
O	4.5929577327	4.8599776028666675	-2.8871613213100003
O	3.3652870826999997	3.2972644508666678	-6.06443411131
O	2.0961151727	5.484767102866668	-8.93693976131
O	-1.6181028173	6.436871142866668	-9.40714605131
O	-1.7096906373	1.1069945228666676	-9.34909075131
O	-4.0742746773	0.6855271028666676	-4.63089599131
O	-5.0846935573	3.4425726528666676	-2.47759375131
O	-3.5299740473	4.921137112866667	0.7059707646899998
O	-4.0856937673	3.7197902108666674	4.340119348689999
O	-6.5636546173	5.607231792866667	6.44497648869
O	-4.9291095572999994	8.212548602866667	8.700757608690001
O	-3.5673224673	6.301683452866667	11.68307644869
O	-2.9180912373	3.1067371468666676	9.72145604869
O	0.4111613826999999	1.8509024428666676	8.32817960869
O	-0.9375058473000001	-0.6352773771333324	5.90027787869
O	-4.1216376473	-1.1775747271333326	3.79646338869
O	-6.4098355973	-4.256016357133332	4.14373254869
O	-8.4771055073	-5.942916087133334	1.4294308166899998
O	-1.7789997873	-11.047653967133332	-5.27876188131
O	-0.17675710730000016	-8.766372067133332	-7.77746403131
O	0.5423802516999998	-5.110533857133332	-7.5063049913099995
