47

O	4.2793788357916664	7.016787805625	1.6081905894583333
O	5.349704135791667	7.347624825625001	0.7610863224583334
O	-0.7911060942083332	3.243325960625001	-2.3616606905416666
O	0.7763826367916669	5.081095895625001	-1.9715209205416668
O	2.2413400857916668	6.079379005625	-0.12937865054166658
O	2.723331035791667	5.007147095625001	-3.2359047705416666
O	0.18765073779166686	2.6069694056250006	-3.1623733805416667
O	1.2671076107916668	6.167290025625	-1.1127647205416666
O	2.003712145791667	6.264579975625001	1.2412927794583335
O	-0.2930643772083331	4.228238619625001	-1.5722251105416667
O	4.127844565791667	7.096527385625	2.9884516394583334
O	0.9165339487916668	3.5310712196250007	-3.8394735605416663
O	4.734744995791667	8.432330875625002	3.4727755794583333
O	5.983713505791667	8.629094675625002	2.6813990994583334
O	6.8400153557916665	7.557065495625	2.8143550494583334
O	5.722581945791667	8.798661265625	1.1859988904583334
O	1.430384673791667	4.5927135176250005	-3.0828087005416664
O	3.361384435791667	8.103730795625001	1.2310735204583334
O	3.3486549357916666	8.116240735625002	-0.2671344225416666
O	3.451712075791667	6.685174535625	-0.6875789005416666
O	-1.944667034208333	1.9596859856250008	-2.035385820541667
O	1.2778842227916667	3.7180392326250007	-5.731714390541667
O	2.079120625791667	7.6410325256250005	1.8285718094583334
O	8.991441215791667	-0.43544213437499923	1.1719237844583335
O	7.921313945791667	-0.22308112437499883	4.836150939458333
O	5.349309275791667	-2.893644204374999	4.411281889458333
O	2.858507045791667	-3.887124424374999	7.081010509458333
O	-0.6585191142083331	-5.333702364374998	7.190158749458333
O	-4.900000034208333	-4.202487064374999	4.289683769458334
O	-1.4826112042083333	-3.1675557143749993	2.565352439458333
O	0.3006601067916669	-0.30814965437499886	4.205755539458334
O	3.593794745791667	1.101319075625001	2.7264080194583333
O	6.391623175791667	3.5240974356250008	3.0478916794583335
O	7.060114155791667	3.332087860625001	-0.8605979405416666
O	5.644638925791667	1.935422325625001	-3.9755421105416664
O	6.675723935791667	-1.466891494374999	-4.761176790541667
O	7.979266105791667	-2.111163324374999	-8.345475070541665
O	-1.8216368442083333	-3.3989552243749994	-6.648868360541667
O	-2.255621344208333	0.1746253756250007	-5.971335460541667
O	-5.336310904208333	1.357884635625001	-3.918987240541667
O	-8.525515634208332	2.373233125625001	-5.545828410541667
O	-9.228143624208332	7.969129505625001	-3.0746994805416668
O	-8.023946984208333	5.1387390956250005	-0.7816059605416668
O	-4.616476444208333	5.1282716256250005	1.0376805734583334
O	-4.125892764208333	1.4402898356250007	1.4682162294583334
O	-4.726136124208333	-1.6027826843749988	-0.6601288805416667
O	-7.065581614208333	-4.444120484374999	0.5127315834583334
