31

O	9.071	38.327	60.369
O	10.528	39.74	59.073
O	8.321	42.912	58.588
O	10.083	41.907	57.732
O	11.172	41.803	56.737
O	7.245	43.896	58.815
O	4.757	36.677	56.845
O	3.398	34.803	54.14
O	1.121	35.296	53.741
O	1.023	35.791	55.034
O	7.47	37.091	61.522
O	6.685	36.894	60.458
O	6.583	37.357	58.13
O	8.446	41.554	59.62
O	6.876	36.422	62.97
O	7.205	37.449	59.362
O	8.34	38.137	59.267
O	8.653	37.792	61.56
O	10.272	39.083	60.344
O	9.419	37.958	62.827
O	9.817	41.008	58.743
O	9.236	42.978	57.648
O	5.435	36.523	58.195
O	4.423	35.299	56.317
O	3.233	35.318	55.411
O	2.321	34.796	53.285
O	2.071	35.812	55.872
O	0.041	35.27	52.895
O	-1.168	35.776	53.328
O	-1.278	36.311	54.59
O	-0.192	36.301	55.435
