31

O	2.656783103942871	-0.7443687319755554	-1.3661854267120361
O	4.9275407791137695	-0.12924166023731232	-0.47810542583465576
O	3.186206340789795	3.1708643436431885	1.1930049657821655
O	4.922413349151611	1.7207695245742798	1.331547737121582
O	6.196714878082275	1.20101797580719	1.9672619104385376
O	2.342043399810791	4.356210231781006	1.5966581106185913
O	-1.2310982942581177	-2.520292043685913	2.208251476287842
O	-3.3846795558929443	-1.9013988971710205	-0.7818325757980347
O	-4.69098424911499	-0.00011121446004835889	-0.2994917631149292
O	-4.098416805267334	0.11252204328775406	0.9488593935966492
O	0.5095676779747009	-1.3193511962890625	-2.131110668182373
O	0.06794538348913193	-1.3097620010375977	-0.8608372211456299
O	0.5125407576560974	-0.9950219988822937	1.4826741218566895
O	3.0081241130828857	2.042508602142334	-0.07360965013504028
O	-0.5888915061950684	-1.6958386898040771	-3.441871404647827
O	0.8621253967285156	-1.0288465023040771	0.18417812883853912
O	2.171776533126831	-0.7481016516685486	-0.13040168583393097
O	1.8266509771347046	-1.0338407754898071	-2.412058115005493
O	4.049665451049805	-0.4336640238761902	-1.5656566619873047
O	2.339085817337036	-1.035583257675171	-3.781179189682007
O	4.396974563598633	1.086578607559204	0.23732230067253113
O	4.294771671295166	2.7586019039154053	1.785155177116394
O	-0.5711642503738403	-1.1816459894180298	2.2514004707336426
O	-1.7621370553970337	-2.790377140045166	0.8348348140716553
O	-2.806330442428589	-1.766959309577942	0.4734477996826172
O	-4.336000442504883	-1.012685775756836	-1.1767175197601318
O	-3.1608572006225586	-0.7825738787651062	1.309085726737976
O	-5.659664630889893	0.8971982002258301	-0.7130405306816101
O	-6.047309875488281	1.9164165258407593	0.11472099274396896
O	-5.447817325592041	2.026940107345581	1.372506022453308
O	-4.485579013824463	1.1400365829467773	1.7899819612503052
