32

O	-41.66836578859793	-2.1514272692261605	5.25625869514192
O	-40.8036100627621	-3.064942543695955	6.058224342838548
O	-40.83498094641231	-4.269321684684148	5.167596611609321
O	-39.68576912758068	-3.2019504727118564	0.6418188253952455
O	-41.06765778579994	-2.8240118210250316	-1.1825457876466685
O	-42.37851865340045	-2.3021869832465005	-1.0009372454219794
O	-43.48397110988068	-2.4432547784378342	-1.7808637259448572
O	-44.67339826123759	-2.5998506797853675	-1.0193008308011944
O	-44.82837648003332	-1.7895064838840864	0.06611865079584682
O	-43.73979745568021	-1.6691050980569426	0.8922134615118689
O	-44.09419769648421	-1.813246460398302	2.3205026462326663
O	-44.99873173652489	-0.8594808989560212	2.8166681174240877
O	-45.631413278514295	-1.0317073460700907	4.017084018750307
O	-46.06776309099756	-2.326916155072962	4.278027757635585
O	-45.20232086060588	-3.2748119993899083	3.8101181510066344
O	-44.353445840769666	-3.0680074947219764	2.808442259597059
O	-43.62220833136059	-3.9064230298095897	2.0182690684746727
O	-44.51664525279241	0.3332208897089224	2.5028795697155313
O	-45.99536854466309	-1.6162588846396675	0.8075811472785601
O	-42.62096097408187	-1.7952855611865217	0.23183799372908853
O	-40.20025932508152	-3.0867643343761086	-2.004097602786001
O	-40.7978903641769	-3.6087406932621704	-0.008519610031940336
O	-38.365986094395474	-3.4919221185417606	0.31825823645228335
O	-37.53768172986818	-2.4747176113563456	0.7357737523210881
O	-38.38069640428442	-1.531387358763788	1.2868795802882584
O	-38.95486199749652	-2.046367979693711	2.4714947091456714
O	-40.12514367740598	-2.6224082588569204	1.864361874154272
O	-41.11339776411536	-2.9103000553790532	2.848116065588509
O	-40.3979748453351	-3.942747612293923	3.7799424407814044
O	-39.78049935568504	-5.137586940140864	5.6933184900413725
O	-41.27320629856783	-1.819685029013184	3.9107613966868224
O	-42.98023049896471	-2.0449539532512464	5.8798670191953395
