32

O	3.7896792888641357	-2.7197160720825195	0.9643726944923401
O	5.256892681121826	-2.5197412967681885	1.5314527750015259
O	5.918485641479492	-1.1231088638305664	1.1779727935791016
O	2.6166462898254395	1.457597017288208	-0.3523156940937042
O	0.17462633550167084	1.0091713666915894	-0.31192439794540405
O	-0.8550867438316345	-0.018009472638368607	-0.33060914278030396
O	-0.5896692872047424	-1.342537760734558	-0.3933985233306885
O	-1.6389975547790527	-2.223201274871826	-0.4046947956085205
O	-2.9337217807769775	-1.7551063299179077	-0.3527393043041229
O	-3.2023682594299316	-0.39592406153678894	-0.2884841859340668
O	-4.567402362823486	0.0704081580042839	-0.23504085838794708
O	-5.151228904724121	0.22413186728954315	1.0040143728256226
O	-6.446484565734863	0.663226306438446	1.1377688646316528
O	-7.167163848876953	0.9529886841773987	0.004606146831065416
O	-6.61562967300415	0.8106119632720947	-1.2411901950836182
O	-5.313889026641846	0.36855438351631165	-1.3583741188049316
O	-4.706730365753174	0.20537544786930084	-2.5542728900909424
O	-4.465975284576416	-0.053342487663030624	2.1392464637756348
O	-3.9215900897979736	-2.6682722568511963	-0.3668673634529114
O	-2.1439144611358643	0.42256104946136475	-0.28000426292419434
O	-0.03788895532488823	2.241835832595825	-0.2536323368549347
O	1.51056706905365	0.5591129064559937	-0.3642880916595459
O	2.4624669551849365	2.8303382396698	-0.2856450378894806
O	3.597028970718384	3.5411579608917236	-0.28134727478027344
O	4.8098931312561035	2.983975648880005	-0.3370567560195923
O	4.932034492492676	1.607485294342041	-0.40309709310531616
O	3.8078079223632812	0.8229742646217346	-0.4110855460166931
O	3.9163503646850586	-0.7244483828544617	-0.5058502554893494
O	5.452826023101807	-0.9022337794303894	-0.31723320484161377
O	5.029930591583252	-0.035967204719781876	1.8140919208526611
O	3.374068260192871	-1.1504631042480469	0.9416473507881165
O	3.108436346054077	-3.1394340991973877	2.380882501602173
