32

O	-40.966	-1.874	4.542
O	-40.862	-3.017	5.546
O	-40.741	-4.401	4.88
O	-39.009	-2.877	0.469
O	-40.994	-2.511	-1.002
O	-42.457	-2.2	-0.876
O	-43.269	-2.215	-2.005
O	-44.638	-2.105	-1.827
O	-45.136	-1.963	-0.554
O	-44.261	-1.92	0.532
O	-44.735	-1.771	1.94
O	-45.65	-0.796	2.321
O	-46.153	-0.672	3.592
O	-45.727	-1.568	4.56
O	-44.8	-2.55	4.251
O	-44.33	-2.62	2.96
O	-43.397	-3.557	2.663
O	-46.054	0.083	1.378
O	-46.473	-1.884	-0.375
O	-42.935	-2.031	0.367
O	-40.501	-2.853	-2.076
O	-40.314	-2.431	0.165
O	-37.985	-2.864	-0.485
O	-36.729	-3.243	-0.25
O	-36.453	-3.666	0.982
O	-37.38	-3.714	2.002
O	-38.69	-3.313	1.763
O	-39.719	-3.286	2.885
O	-39.527	-4.367	3.949
O	-40.584	-5.454	5.886
O	-39.79	-1.921	3.572
O	-41.044	-0.524	5.244
