32

O	49.731	17.921	-8.917
O	49.624	16.719	-9.015
O	49.436	18.746	-9.88
O	48.88	18.292	-11.185
O	47.542	19.04	-11.568
O	46.478	18.975	-10.703
O	47.38	19.77	-12.725
O	45.248	19.585	-10.962
O	46.154	20.414	-12.958
O	45.111	20.3	-12.094
O	50.131	18.628	-7.886
O	50.444	17.978	-6.7
O	51.731	18.97	-6.103
O	53.074	18.641	-6.573
O	51.501	20.472	-6.137
O	51.712	18.517	-4.509
O	52.836	18.229	-3.639
O	53.53	16.886	-3.904
O	54.757	16.775	-3.834
O	52.473	18.323	-2.131
O	53.7	18.161	-1.241
O	54.632	19.371	-1.435
O	53.211	18.083	0.219
O	52.737	15.885	-4.194
O	53.202	14.521	-4.453
O	52.389	13.836	-5.524
O	51.325	14.363	-5.943
O	53.449	13.693	-3.139
O	52.25	13.487	-2.26
O	52.34	12.169	-1.535
O	52.251	14.541	-1.171
O	52.791	12.766	-6.071
