32

O	50.10164619178815	17.090019623692417	-8.426636830994125
O	49.88181118525739	15.87284055246733	-8.296883794271379
O	49.6842574916416	17.673450319879073	-9.597888855074698
O	48.87039992265869	17.187898951593084	-10.60204816411768
O	47.64957069691485	18.065878597676715	-10.48408584169864
O	46.570582569281335	17.397912960601477	-10.018728507945912
O	47.425863036756795	19.225612537318757	-11.158947818292354
O	45.31133032472299	17.82112265875729	-10.319562104715434
O	46.20293255105083	19.373071394813074	-11.7716859378802
O	45.12672063027974	18.99995330194628	-10.977330292157454
O	50.03396666400331	18.02734377911376	-7.394534264147709
O	50.50741015130557	17.62999323607758	-6.142732091610489
O	51.74787845514703	18.887626810522793	-5.968663354955185
O	53.1313452943828	18.783355783061502	-6.460673020342714
O	51.60520282561925	20.394650187907448	-6.5431036101360025
O	51.541817720460266	18.888135274091862	-4.249349442904396
O	52.78338655134674	18.248075152283718	-3.9502914163429605
O	52.52149025709806	16.9579281985803	-4.760563224224715
O	52.828039809547754	16.551499319126716	-5.921426952286698
O	52.55753153108194	18.056194614439377	-2.4601419207621946
O	53.68223662252324	17.78285914182074	-1.6333688984339974
O	54.94947328195525	17.140464350172735	-1.939042725149739
O	53.48612273804462	18.00015993541011	-0.20054884286990848
O	53.41289328304782	16.159873492589103	-4.061627145788205
O	53.150713104364925	14.78246786937564	-3.9181857940267477
O	52.299718169676986	14.29934454345689	-4.969886895792584
O	52.93459285549376	13.96566853754129	-5.958138404779144
O	52.103245896557695	15.037304407291359	-2.756171986348232
O	53.13548395025767	14.321315504229233	-1.8917303809248884
O	52.89105147436538	14.755525609360191	-0.525262876333946
O	52.30697540813425	13.036969104241399	-2.0993919900818367
O	51.05413101655192	14.794394166485082	-5.166847296908339
