87

O	1.754606190372727	-4.4657143358018185	2.271746924394545
O	2.803085140372727	-4.941858635801818	1.8019952143945455
O	1.1681402603727271	-5.157101505801818	3.303482114394545
O	1.427142150372727	-6.419406285801818	3.799430554394545
O	0.1729326843727271	-7.174796895801818	3.4367585143945454
O	0.38060610037272713	-8.094943055801817	2.4686915143945454
O	-0.9279898656272728	-7.327532785801819	4.221046664394546
O	-0.42549742662727286	-9.188284965801818	2.368072984394545
O	-1.436560099627273	-8.598956275801818	4.3536728943945455
O	-1.5321694496272729	-9.294744925801819	3.1556799443945454
O	0.7650996163727272	-3.824221815801818	1.5249156943945454
O	1.190228550372727	-2.998229715801818	0.48277975839454546
O	0.4318286663727272	-1.502901545801818	1.0654692343945453
O	1.053215370372727	-0.5484864448018181	1.9981518343945455
O	-0.9740003306272729	-1.445855975801818	1.8666234243945454
O	0.20824346737272711	-0.9528161178018181	-0.5611583486054545
O	1.2107996603727271	0.06367137019818189	-0.5138287466054545
O	2.395623150372727	-0.8669274578018181	-0.16772420660545456
O	2.9838560403727272	-1.208093827801818	0.9020183943945453
O	1.180136440372727	0.4457388361981819	-1.9840186556054547
O	1.753228250372727	1.687769004198182	-2.3740882556054546
O	2.820174290372727	2.469844014198182	-1.7724395756054547
O	1.355960300372727	2.186056884198182	-3.6903484756054548
O	3.388770320372727	-0.027263092801818073	-0.6458714256054545
O	4.570909330372727	-0.5790709458018181	-1.1793651676054546
O	4.8189307503727274	-1.892803655801818	-0.6537536416054546
O	5.438110620372727	-1.857661425801818	0.39811512439454544
O	3.8666615903727273	-0.9182711348018181	-2.558271855605455
O	4.817544410372727	0.1357859141981819	-3.115228225605455
O	4.206840180372727	0.6252579881981819	-4.341187655605454
O	5.746978020372727	-1.0263499028018181	-3.5210470656054547
O	3.9413553103727272	-2.910257825801818	-0.8269680866054545
O	-10.807432789627272	-6.784176955801819	-6.565162395605454
O	-8.939397979627271	-5.569737575801819	-9.700722145605454
O	1.971710900372727	-8.003336135801819	-13.751769485605454
O	1.472438000372727	-7.444941355801818	-9.902080155605454
O	3.164738850372727	-4.341572715801818	-8.635161065605454
O	1.2330577903727271	-3.777058505801818	-5.422856285605454
O	-2.158731209627273	-3.021170095801818	-3.8669927056054547
O	-3.257603769627273	-4.1104415758018185	-0.4327440943054546
O	-5.934910259627273	-4.588074975801819	2.1721144243945454
O	-6.155292869627273	-8.328780915801818	2.9835607843945455
O	-8.020734479627272	-8.071233405801818	6.304437264394545
O	-11.089623589627273	-6.296932565801819	0.9954570243945454
O	-8.882370579627272	-4.130089565801819	-1.1658160516054545
O	-6.773506809627273	-5.8088730458018185	-3.929833775605455
O	-5.183788059627273	-4.018734095801818	-6.915764745605454
O	-2.4752435696272728	-5.361010275801818	-9.242532275605454
O	-2.350337669627273	-4.1608928258018185	-12.798905185605454
O	1.440421600372727	-3.342882235801818	-12.475011085605454
O	-2.756030749627273	0.7111275461981819	-9.107977915605455
O	-6.395574989627273	1.8879772841981821	-8.635337485605454
O	-6.702253269627273	8.284752604198182	-5.708137825605454
O	-4.011395539627273	8.508483064198181	-2.9089324656054547
O	-3.311490069627273	4.693193104198182	-3.4705405556054547
O	-7.175042359627273	3.9056667641981817	-3.1903438156054547
O	-7.489692289627273	6.036635534198181	0.02147237739454544
O	-4.2203291896272725	4.564396724198182	1.4638109143945455
O	-5.885373029627273	1.099084474198182	1.0705401943945456
O	-5.617645379627273	0.4935365251981819	6.348669424394545
O	2.278803190372727	-3.976225945801818	11.133387914394545
O	3.8393027703727274	-0.29213584170181806	11.791214414394545
O	5.519274420372727	2.801488594198182	10.430459914394545
O	2.740845030372727	4.8939033941981815	12.221246314394545
O	0.16041668937272716	2.644190474198182	10.546663814394545
O	1.814209690372727	3.345850144198182	7.075320654394546
O	2.071712360372727	7.157279134198181	7.791952374394546
O	-1.731498369627273	7.261870604198181	8.707501904394546
O	-2.539259479627273	5.5888075841981815	5.318119704394546
O	-0.18447795912727288	7.990457404198182	3.454380074394545
O	-5.253782139627273	10.269342854198182	4.810323614394545
O	-4.542243879627273	9.174355644198181	1.2950101543945456
O	2.486279660372727	9.162267724198182	-2.8554681256054546
O	1.5826109303727272	7.234359714198182	-5.994108685605454
O	6.623853900372727	9.38363349419818	-7.062191735605454
O	6.932417200372727	6.432837454198181	-4.759315365605454
O	7.406361830372727	8.388343174198182	-1.4971484456054545
O	13.400075410372727	-5.9098173558018186	6.019731294394545
O	9.944373110372728	-4.5015919458018185	5.171420374394546
O	8.692266550372729	-5.485560125801818	8.522293414394547
O	11.303346710372727	-3.454951995801818	10.258025214394547
O	10.937315810372729	-0.624678745801818	7.700296874394546
O	7.241654140372727	0.08563698619818191	7.935143104394546
O	7.310475990372727	1.734156864198182	4.485386634394546
O	10.698829510372727	3.394252104198182	5.4438296943945454
O	7.770339570372728	-14.074985445801818	-7.645237105605454
O	9.807930710372728	-11.648000745801818	-3.831678885605455
