22

O	-37.328394555300115	-6.461450203116724	17.98048096109766
O	-37.53082306169094	-7.699811510989878	17.459707480925598
O	-36.4903653306093	-8.574858080543798	17.524636109482962
O	-35.26779955847108	-8.144157999021221	18.02143452776816
O	-34.98219401647004	-6.81443241671391	17.856826186834624
O	-36.06783036540159	-6.000235721756889	17.880556280542933
O	-36.55467314630027	-9.86749221775965	17.931787434493117
O	-35.59430333536568	-10.167275101380506	18.802956447318095
O	-34.65633403162987	-9.184928470479608	18.666873033495442
O	-33.80925045186099	-6.3249205091266365	18.464202609159123
O	-33.6956482384721	-8.883269053059596	19.791740316574035
O	-34.6631205062267	-8.691881937637016	20.960642521538908
O	-34.67418638583355	-9.893515316252063	21.701272668335953
O	-35.36403239930009	-9.671796696711834	22.874770485407154
O	-36.715203946575485	-9.45631855240195	22.573222026293543
O	-36.93838052249704	-8.435138173854613	21.651137260380676
O	-35.915887732486866	-8.112806662107435	20.754705760207457
O	-34.91457820768493	-9.96065559841749	24.169581300338088
O	-37.66867544575536	-10.706761659544883	17.67369051657957
O	-37.38435622588944	-12.122632957817544	18.06332427232608
O	-38.80932527531313	-10.099009845334347	18.5009362116402
O	-38.07535939232938	-10.52787515474328	16.235864490040797
