57

O	2.3325906851028577	-6.728133004628572	-0.7488462858200005
O	3.504549795102858	-6.385491344628572	-0.15317054852000056
O	3.747752315102858	-5.0566628846285715	0.012787199179999431
O	2.770020415102858	-4.135952674628571	-0.3383699405200006
O	1.472982053102858	-4.569042754628572	-0.25493717792000054
O	1.305608986102858	-5.891680504628572	-0.5093016728200006
O	4.904279355102858	-4.410899484628572	-0.28088872132000053
O	4.693220335102858	-3.2939086146285717	-0.9729153728200006
O	3.373896495102858	-2.994203594628572	-0.7916103268200005
O	0.4695698331028579	-3.7006419246285716	-0.7275559958200005
O	2.642318265102858	-2.1273584646285717	-1.7879108918200004
O	2.964299525102858	-2.849206384628572	-3.0971960518200006
O	4.017578335102858	-2.145390334628572	-3.719951991820001
O	4.175388785102858	-2.6436818346285715	-4.99625338182
O	4.657416915102858	-3.9566916446285716	-4.91451615182
O	3.875906435102858	-4.803815844628572	-4.1306287718200005
O	3.082500295102858	-4.2392523446285715	-3.1282549418200007
O	4.211344025102858	-1.8969288246285716	-6.18075781182
O	6.184269355102858	-4.998418624628572	-0.11226132682000053
O	7.274509785102858	-3.997114774628572	-0.3269933003200005
O	6.228643365102858	-6.130136214628572	-1.1476482038200007
O	6.221590055102858	-5.679278284628571	1.2292949281799994
O	6.451832915102858	7.605814535371429	9.67614050818
O	2.425619935102858	-0.5269480556285717	10.135444968179998
O	1.7600059321028578	-1.7402391046285717	6.608008788179999
O	5.498755995102858	-1.7817666646285717	6.01382728818
O	5.675000465102858	1.8748729253714282	6.96651474818
O	2.5115045151028577	2.864567325371428	5.068182978179999
O	3.897881975102858	1.4798442753714283	1.9118665981799994
O	7.257005525102858	3.2227727753714284	2.127985018179999
O	5.359444645102858	6.402763985371428	3.0577475781799994
O	2.886434475102858	6.212855175371429	0.15241426417999948
O	5.709518085102858	5.4891981753714285	-2.3242904118200007
O	7.449241575102858	8.658744385371428	-1.2382610198200006
O	2.713412105102858	8.86884448537143	-6.4074812018200005
O	4.981941045102858	7.393158035371429	-9.06239631182
O	0.3653132411028579	5.999112525371428	-11.005126031820001
O	2.5825306251028577	0.24434354137142833	-10.848962531820002
O	-0.43567221489714203	-2.0288912046285716	-10.368205831820001
O	-2.552284664897142	0.9102103453714283	-9.22436689182
O	0.09218151010285791	2.015105925371428	-6.71648628182
O	-0.2693283448971421	-1.1516569966285717	-4.749303691820001
O	-3.9534302648971424	-1.4145548676285717	-5.28595449182
O	-4.710786594897142	1.9291563053714285	-3.6420798518200006
O	-2.390658484897142	1.0313889753714283	-0.7250719568200006
O	-4.065538404897142	-2.3022060746285717	-0.25498067512000056
O	-7.551445104897143	-0.8093817826285717	-0.37114243782000056
O	-6.985000894897142	2.290574215371428	1.7831090681799997
O	-4.678955604897142	0.9396261153714283	4.51384333818
O	-7.381669424897142	0.37805834537142835	7.07664387818
O	-8.088594744897142	1.3992899653714281	-12.049364331820001
O	0.9643742265028579	-13.197330144628573	6.713806518179999
O	0.2847479671028579	-9.90171921462857	4.98934354818
O	-2.830130134897142	-9.16860500462857	6.895292888179999
O	-4.360479964897142	-12.565855444628571	6.08331682818
O	-3.635527554897142	-12.06588664462857	2.4090945481799992
O	-4.977244354897142	-8.555261134628573	2.0908905981799992
