20

O	10.442761498800817	-6.855996057465414	93.7035123781
O	12.87910691447055	-5.8192366155398245	92.59088419263053
O	11.320449404954411	-6.22518221583692	92.30994451300276
O	11.029332714363044	-5.887689580336568	94.59864850594191
O	10.5947999026477	-5.032210269387356	91.87311404308892
O	12.212263800079338	-6.239789024474545	95.4245899955846
O	11.255837816094145	-7.288934510992952	91.34383007177624
O	12.467645643874247	-6.366157375393937	96.83051642295447
O	11.58299622061887	-7.133955179761809	97.7279738624125
O	11.021575397514555	-6.086962573074306	98.62056616451281
O	10.87006499848687	-4.880661574707937	97.79363682460608
O	12.044105566566014	-4.122766105009729	97.30824514228198
O	12.64435869984088	-3.591682261164442	98.54883580601856
O	12.476412867488584	-4.53566963265194	99.63579627618347
O	13.345716894011977	-5.615006670612065	100.0440368576525
O	14.582674538629554	-5.77011217583857	99.26962594450485
O	14.670490521084169	-4.605892000170796	98.40490072230018
O	15.449357362195308	-4.880154994031477	97.21641004946733
O	15.078363398720763	-4.479283755845604	95.91694234865444
O	14.766540442682722	-3.1887489526708857	95.37417762615675
