71

O	1.5391862165492727	-0.3935556625218183	-1.4781490269554545
O	1.439164316549273	-1.7348848395218184	-1.8412035269554545
O	2.311809726549273	-2.7441812595218185	-1.3399333169554546
O	3.227128926549273	-2.2281229995218186	-0.47362559795545445
O	6.142131666549273	-1.6530180595218185	-1.3671033169554545
O	5.553414526549273	-2.5654782495218185	-2.2908676769554543
O	4.515105966549273	-1.9927053995218182	-3.0815045769554548
O	4.664210516549272	-0.6374714735218183	-3.1697457769554545
O	3.480877166549273	0.9329291684781817	-1.6767046269554546
O	4.605892136549272	-0.35691383452181835	0.08868460604454559
O	3.330867116549273	-0.7993162495218183	-0.3034922606554544
O	4.628479486549272	0.20202672047818168	-2.0419768969554544
O	2.620746086549273	0.1802689994781817	-0.9508083089554544
O	5.264573796549272	-0.5134594595218183	-1.0972934559554544
O	2.475576716549273	-3.821302119521818	-2.204868086955454
O	5.442907856549272	-3.9358800495218182	-2.0035619569554544
O	0.014335898549272863	1.0237883224781816	6.986248103044546
O	2.552312746549273	3.7727795204781818	7.761821543044546
O	-0.5378547514507271	-12.431797189521818	1.8653447430445453
O	-2.669203603450727	-9.348450179521818	1.2411860930445457
O	-5.821115563450728	-7.497740799521818	2.1222128230445456
O	-5.589211213450727	-6.971315059521818	-6.401698426955454
O	-4.555327483450728	-9.410978389521818	-9.126011636955454
O	-0.8859197934507271	-9.104944619521818	-8.226672346955455
O	-1.650946583450727	-10.621209689521818	-4.804458636955454
O	-2.336350983450727	-13.872584389521817	-6.657215156955454
O	0.07636220954927286	-3.4191519795218186	-13.016157536955454
O	-4.830840323450728	-4.811416839521818	-11.110478736955454
O	-4.597377833450728	-3.2055693095218185	6.438492363044546
O	-2.298394253450727	-5.341754559521818	8.585820023044546
O	0.7420970275492729	-4.446980239521818	6.518009503044546
O	4.065726246549273	-3.1880313195218184	7.837149123044545
O	4.2536199165492725	0.02694205447818171	9.816756063044545
O	7.521837726549273	1.2018291354781816	8.247734223044546
O	9.372911766549272	0.5471869244781817	5.017250373044546
O	7.4996324065492725	-3.5594223995218184	12.401276563044545
O	4.1054703265492725	-5.258444609521818	12.132711463044545
O	-5.854417223450727	-3.6043602795218184	11.922493163044546
O	-6.317517073450728	2.6618182904781817	9.224920173044547
O	-5.1966202234507275	5.841557350478182	7.465092803044546
O	-5.6131984234507275	9.981765340478182	2.5915387630445457
O	-7.382922313450727	2.5785407704781815	-14.461638936955454
O	-5.282093743450727	3.9807737804781818	-11.622216336955454
O	-2.975854433450727	7.999135680478182	-6.674655346955454
O	-3.425416473450727	9.273021110478181	-3.1511453269554544
O	-1.417068323450727	10.675272610478181	-0.29259159640545446
O	0.5265746025492728	8.17252319047818	5.700115303044546
O	0.7224943395492729	5.384188930478182	3.0494549730445453
O	-0.0974526424507271	1.8374254804781818	2.6376861130445453
O	2.927408656549273	-0.5330348565218183	2.8629124630445455
O	3.906960516549273	-4.278594459521818	2.3114440530445455
O	1.026607629549273	-6.582969429521818	3.3602228530445455
O	-1.7843664434507271	-3.977271789521818	2.6891425330445453
O	-1.7715783534507272	-4.689229449521818	-1.2392531179554545
O	-5.476390543450727	-5.8296093095218176	-2.3120032569554545
O	-4.156816813450727	-0.8682345595218183	-2.9413297169554546
O	-1.907526293450727	-1.6557507995218184	-5.873083306955454
O	1.562125106549273	-0.31763657852181826	-5.702392446955454
O	3.833639436549273	2.5205110504781816	-4.722176196955454
O	7.558436686549273	3.2327137104781816	-4.582903476955454
O	8.694210926549273	2.6854976804781816	-0.9898039439554545
O	6.260443246549273	3.4725607204781817	1.7933555930445455
O	5.451049216549272	7.013167190478182	2.8923702930445456
O	8.357460366549272	8.497304680478182	0.9730371730445456
O	8.115856506549273	12.283405410478181	0.47138027304454555
O	5.859984306549273	9.715784910478183	-3.7637639369554545
O	2.249209556549273	8.486681090478182	-3.7657605069554547
O	0.2532769953392729	5.274368920478182	-3.3919039969554547
O	-1.4374625834507273	4.001314980478182	-6.536112666955454
O	-4.764572583450727	2.312743200478182	-6.541002366955454
O	-6.8762274934507275	0.3718810451781817	-9.010750566955455
