29

O	-19.724714977696898	57.856818567510835	14.762271497519155
O	-20.755665059482965	56.72284235811454	14.077894359977337
O	-19.80604314898257	59.205500964303006	14.13721942803409
O	-18.136197040589444	57.3194083294652	14.6703610264981
O	-19.995526493716504	57.89547708576993	16.571844726693342
O	-20.42825344097659	55.51944621615208	16.517253660901886
O	-19.57357969770223	56.51276165995787	16.992618683476625
O	-18.223679010311823	56.21584353777809	16.826696407362384
O	-17.923904788023687	54.95366015173485	17.334115973899998
O	-18.633367830879706	52.62976276394113	17.50067356134616
O	-19.61809194014285	51.969599283613434	18.226114471908826
O	-20.89434261603192	52.352437223140925	17.927611343900075
O	-21.131980003377322	53.3116493488482	16.947023254851285
O	-20.114175430819575	54.1938749962331	16.60132837753621
O	-18.804391562294228	53.92222540586456	16.98955845606359
O	-19.407560598620165	51.495371208912	19.629432072047152
O	-20.36337919521224	51.150105762073984	20.35317699889186
O	-18.306808248365048	51.92432338708261	20.431329450597087
O	-18.30411894900857	52.93302238568235	21.488195760428376
O	-19.41926307545001	53.9432635168151	21.343243942194324
O	-20.72938747895171	53.42197964089006	21.636878248885743
O	-19.422975835260807	54.41938859484161	20.14267864668181
O	-17.0441370565707	53.74299704712831	21.09673948048449
O	-17.337553449413935	55.14437285304264	20.665748571621982
O	-16.07263125893401	55.75591791734443	20.21896263514715
O	-14.872785788177135	55.4364730965803	20.81942364382502
O	-16.082907648064808	56.72722147579215	19.421304322339985
O	-19.187032135983095	58.77288836829328	17.21312888128646
O	-21.327106387691906	57.96987719345068	16.780933171608233
