45

O	12.661055930379245	24.096550323719153	3.106188260736999
O	13.010657046482711	22.5016034174556	3.492162712695036
O	12.855372686570504	22.481261619797447	5.080843741608325
O	14.200701575193936	22.17511915278201	5.36632676816869
O	15.260491120501916	22.69491688764787	4.648035933184379
O	14.638063206893161	24.01211605321496	4.5788459356051
O	13.512287630836099	24.63837997209712	4.018543223129427
O	11.367538671351266	24.320056997046027	2.9839716268708583
O	10.309788672958753	23.427734272580228	3.3030547673956168
O	9.113218231354736	24.16168797721393	3.3296957223313903
O	8.180725655093653	23.894632026591967	4.330279093852392
O	8.764339072765102	23.276983361539276	5.39104176928759
O	9.623550931891785	22.256556262977814	5.106604575765102
O	10.101282984420767	22.208481254649957	3.797164893037788
O	14.371470917368546	22.54773721807819	2.7280499694350446
O	14.424502879550968	21.166968662438947	6.867429498394342
O	15.722559873550619	20.81339369020899	6.973703144191534
O	16.183430259399195	21.149405223461873	8.213346612643562
O	17.351127280090914	20.57124460005501	8.712413265991277
O	18.201524285565416	20.207976230790145	7.723828957603475
O	17.570443981842413	19.280915092036693	6.95640073345783
O	16.437137448079543	19.8501684305462	6.394719662339977
O	12.40302457444485	21.363134477241402	5.850639750395337
O	12.827822693890436	20.447571396046563	4.740663171747749
O	12.025546029366707	19.64096393656462	4.026263153203806
O	12.502543375906056	18.369682055207925	4.12258902549745
O	13.834815503226729	18.180266037969837	4.352063840191817
O	14.656133512800844	19.20267065393989	4.038887212353979
O	14.03820779382693	20.38015497683671	4.0240205315298585
O	16.378300910454197	22.745845862020754	5.424370395465173
O	14.741079780747526	24.420917315307275	5.863520959166456
O	12.74168250199027	25.340440542129368	4.942742056514884
O	11.5859810054924	24.65630753898104	5.128355348006156
O	11.405355329370671	24.9361005208433	6.441477683723654
O	12.073804325799442	24.325700972450196	7.447193472851758
O	11.318556133106503	23.440771610530444	8.12631732272602
O	10.16148556969182	24.096749453098685	8.532750825665397
O	9.669209706627498	25.212363643663988	7.85083247397887
O	10.358746673100232	25.66193702535845	6.797411640705272
O	12.26281862675103	21.814082989505522	2.535177872214179
O	14.301753794164176	22.54374776789537	6.768270625467552
O	7.307138128958843	25.084770304835548	4.658801215523426
O	8.183969627646704	25.916238127620847	4.961028341359476
O	6.552619629182867	25.406005810029036	3.530492059283339
O	6.123621492002987	26.666205487802827	3.047261055337404
