18

O	4.569296503972336	68.38802740574947	61.44236544967961
O	4.6198716430481	69.47662728787539	60.89701720470521
O	5.08841528225577	68.12886844565642	62.57537559628082
O	3.4730841187625536	67.75819671870067	61.022026956211505
O	2.804339625787186	67.1076192901241	61.99530390794859
O	3.574594803082828	66.79002622070098	63.104396480635884
O	4.382308897137252	67.72931165110664	63.574904836650624
O	4.305808566143516	69.0099626867882	64.41980868080086
O	3.2565484407729115	68.44219621695675	65.08599649927937
O	3.4994903534792083	67.27654081336102	65.88337501066886
O	2.8714915454914065	70.15725139645099	63.30884882174727
O	2.1092995283095908	68.9278613717051	63.2121626149388
O	2.2049609606980605	68.01543106205801	64.19714565388031
O	2.492408125562501	66.64573794681152	63.98703293440188
O	1.1885986908395245	66.48030258958799	63.96378499257631
O	3.284203749026562	65.55016200419459	64.37147283132377
O	3.142359224997815	66.06338346725178	65.71789590775397
O	2.0501038445424573	65.43829492349363	66.4046237177247
