36

O	0.9695429420269788	60.95705106459914	69.33921906332812
O	1.0864713084494468	61.6920831239808	68.17758995070892
O	0.7227912201248454	59.73755335462626	69.35997181753969
O	1.443336722070458	63.6676943596069	69.27544583691584
O	0.8631879011030446	63.007405980869066	70.40367620235595
O	1.41606093953681	65.2272365763215	67.02967033585004
O	2.2725623607049985	65.31135310833186	70.48961906963598
O	3.015606017109096	66.4555114724772	70.48034719696555
O	0.2098889619075579	61.752413255309406	70.19132204955734
O	1.371203547922093	63.79177328316467	66.90687803440863
O	2.0308811813742076	64.98639680944441	69.16758271798723
O	1.4907196282759965	65.95036590825396	68.2797036311793
O	2.976793207669654	67.04084259298993	69.1202360607624
O	3.622124258021567	60.342345523670076	66.93241888132174
O	1.2459013616075731	63.00338238947695	68.13735917303643
O	3.946279962981674	60.6295206479106	68.17776722221225
O	4.267038941009872	61.879450125084844	68.49307210510688
O	4.330678318199706	62.89407535663655	67.59462892210104
O	4.472302387598981	62.4164057358799	66.33989429194797
O	3.544852857925237	61.396986042706956	65.99437809507894
O	2.5216379298461162	59.66161100409473	66.82425918782504
O	3.861136075306208	62.396979117624866	69.75946891486093
O	4.392430977545406	64.19666474760383	68.19647513452573
O	5.196998929234697	64.60878695039769	69.29761268487145
O	4.699442373799584	63.45626711155916	70.19235691497255
O	4.410313773981795	64.95271242656892	67.18564139662298
O	5.725863435258594	64.31484484613271	66.80351590856918
O	4.340544725471409	67.40494686741971	69.0154238753601
O	4.414321586843537	68.13264211395648	67.82068335080606
O	3.574351956619804	67.82558912326323	66.76500736996536
O	4.34788352802407	67.70329271570611	65.50926492793756
O	3.762449474569448	66.42822376664307	65.11099687940066
O	4.640174163180578	65.2772090698161	65.02634759024379
O	5.954297213196588	65.85165665982666	65.11472218561887
O	6.1316156211571515	66.5512183913745	66.38686026802064
O	6.257511943455054	65.50918994708978	67.4042068488204
