84

O	-0.8086001886666669	0.11698351031249998	4.2325179640625
O	-1.8719465786666671	-0.5925126936875	3.6747662440624995
O	-0.484217510666667	1.2704849323124998	3.5099160140624996
O	-1.488729998666667	1.7440552223124999	2.6657275790624997
O	-1.9722452286666672	0.6629604513124999	1.8360492830624995
O	-2.2901211486666666	-0.5954376436875	2.3476051810624994
O	-2.701417538666667	-1.8209928436875003	1.7089737050624996
O	-3.151043238666667	-2.0913495936875	0.5463191840624995
O	-3.194528748666667	-2.9798971336875	2.4049027260624998
O	-0.5862958586666671	0.2600238923124999	5.7094018340625
O	0.7574557863333331	0.13336079731249995	6.2835417840625
O	1.867786771333333	0.6970588973124999	5.5207005340625
O	2.179016091333333	0.1662313153124999	4.4430660340624994
O	2.444403291333333	1.9952990093124998	5.7980799540625
O	2.601575791333333	2.1759884163125	7.249637944062499
O	4.019235581333333	1.9274435633125	7.460901744062499
O	4.881256741333333	2.7162355363125	5.505426064062499
O	3.467579071333333	2.6299099563125	5.0298561140624996
O	4.9921212913333335	2.9124943863125	6.9921354740625
O	1.852606631333333	3.3845511963125	7.5886119240625
O	1.950208591333333	4.5108915663125	6.992930294062499
O	0.485788265353333	3.1462441063125	7.900245354062499
O	0.947813456333333	-1.0660362836875001	7.0136354440624995
O	1.757674131333333	-1.0884085536875001	8.5165732640625
O	1.274011610333333	-2.3330631736875	9.247381544062499
O	1.492692621333333	0.04564447431249996	9.4209246640625
O	3.474637181333333	-1.3064294836875	8.3286961840625
O	3.870316931333333	-2.3468171236875	7.486196164062499
O	5.053608001333333	-2.1465270836875	6.7444275340625
O	5.640958181333334	-0.46028536368750017	8.0080630940625
O	5.488180231333333	-0.8016656736875001	6.612241674062499
O	4.590480361333333	-0.7799297636875	8.922153144062499
O	6.8781555113333335	-0.8341015136875001	6.2076286940625
O	7.727762791333333	0.2162512153124999	6.3924282940624995
O	7.591836591333333	0.9079919903125	7.556155574062499
O	6.683361871333333	0.3698755643124999	8.4629458840625
O	-11.813533268666667	-0.9683713036875001	1.1763771270624996
O	-1.323028408666667	10.8125809163125	-0.5746677159375007
O	-2.4290690886666666	10.1578677163125	-4.125127355937501
O	3.786248281333333	9.0788721863125	-6.4667181359375
O	5.308809131333333	6.8833604763125	-3.7745085159375007
O	8.654855671333333	7.9316639663125	-2.2206050659375007
O	7.194724001333333	7.3169990463125	1.2763107490624996
O	4.781160451333333	10.1340695363125	0.5386806840624996
O	12.518392231333333	3.3600490563125	3.7099374040624995
O	12.890930531333334	0.2639890023124999	5.9199841640625
O	11.967638731333333	-2.2333919936875	3.1908266640624996
O	9.947714571333334	0.16385136031249992	1.0582566840624996
O	9.067040331333333	3.2636410863125	-3.292718895937501
O	8.671497341333334	5.6826830863125	-6.2648638259375
O	-9.397091728666666	8.7063744663125	-1.2478848259375006
O	-8.050963858666666	6.4039245263125	1.4716321180624994
O	-9.827921868666667	4.703691106312499	4.3493277740625
O	-10.405587768666667	-2.7942545736875	7.4160693040625
O	9.679801641333333	-9.0283000936875	1.5615223990624996
O	8.738883401333332	-8.8828471236875	-2.0310444659375007
O	6.910975831333333	-5.0222084436875	-6.278795365937501
O	3.740565671333333	-6.8714542536875	-7.2758573959375
O	0.6189331423333331	-7.957699873687501	-5.4096469459375
O	-9.685446468666667	-10.1224690936875	1.8110365970624995
O	-12.485206068666667	-7.5669765336875	2.0163898360624994
O	-7.9457779686666665	-3.6874929636875002	-0.9530544759375004
O	-6.235167088666667	-0.3187058236875	-0.9734798759375005
O	-5.545328548666667	1.2671233743124999	2.4252267060624995
O	-4.012339598666667	4.0976274763125	4.301170334062499
O	-4.483136808666667	7.2990031263125	2.2804497970624995
O	-4.348460808666667	5.5657930663125	-1.0506780059375003
O	-0.5324237686666671	5.5838354263125	-0.9294992059375002
O	1.099289081333333	6.9600059063125	-4.062270785937501
O	-0.012345949666666967	2.0351708063125002	-4.1096556159375
O	2.8503495413333333	1.1801746353125	-1.7406134359375005
O	2.218645141333333	-0.9909241336874999	1.5082231120624996
O	0.227810156333333	-3.9511735236875003	2.7897881180624995
O	-0.279069017666667	-5.6187041036875	6.1447520240625
O	-3.362861338666667	-4.0291081436875	7.549698134062499
O	-6.085449038666667	-3.4439381936875	4.9754943140625
O	-8.293253408666667	-6.0405357036875005	3.3171641140624994
O	-6.959969538666667	-8.7997523636875	5.557417804062499
O	-2.5185954686666667	-10.0950062936875	2.9145284000624994
O	-3.005654208666667	-8.3941613636875	-0.49410099593750045
O	-1.7739733386666672	-4.8932105136875	-1.2605409759375004
O	1.767174451333333	-4.5298678636875005	-2.5762925159375003
O	2.509372331333333	-2.0885857536875	-5.3475315659375005
O	5.660842761333333	-0.5232113236875	-6.800108395937501
