19

O	52.681997314094836	39.745063756026525	19.2588403444691
O	53.28946231445154	40.10602733297384	20.39995763444592
O	54.2114001233842	39.20120593700292	20.840337661644913
O	55.17621846888834	38.89520297450543	20.062458153237912
O	54.67245061947044	38.53008211926224	18.95122779430352
O	53.41745259927437	38.85457615249307	18.534898505974862
O	52.74140747743182	38.502441403359946	17.387079962789205
O	55.77795314827325	38.86234867508021	18.351559166220817
O	56.77108897198407	38.26645173722241	19.046687788850456
O	56.477222098838034	38.494082788884235	20.385841798317113
O	57.46443800782447	38.40467652296284	21.506934465393364
O	57.89668259356121	39.00404837470859	22.729312176394046
O	58.685576001520644	39.89068461749244	23.438891144296694
O	58.77832079011294	38.02673608951292	23.46651908528988
O	59.82358279370742	38.46839408059949	24.21511151199638
O	58.80168454671555	36.928512968821245	22.57418875954861
O	58.03388067833201	37.23698212673602	21.496310707224257
O	58.31260391287144	35.638703979568945	22.97176025713199
O	57.634291958866015	34.94553439878502	22.019948254586232
