36

O	8.202837127296885	9.689231283190283	18.458087716461392
O	6.878334088776633	9.617427912882059	18.57562737711883
O	6.216154084316973	10.24391773678836	19.645242145432917
O	4.915000362568405	9.641495623444149	19.6517711639948
O	3.959811061779355	9.934170516890397	20.438468804115185
O	4.895925034034028	8.475193193358336	18.80876066996269
O	3.9590288939912046	7.478535711174476	18.524219071835518
O	2.635231456164143	7.296846793418288	18.81961052350361
O	2.246652387898763	6.094949380096407	18.21282856245957
O	0.9261637972717081	5.983140307770023	17.89946702073638
O	0.10009705636484156	6.440421142184835	18.89085812933257
O	0.6120478986019631	7.217162965953307	19.90273746030131
O	1.8210266389785428	7.918531914597304	19.750626797966905
O	3.241134759106002	5.571996271572919	17.511951795914147
O	4.2514318427421	6.410068289944965	17.695161622044175
O	5.463139808356409	6.295238724358905	17.128509934752337
O	5.996712534158409	5.3129604095034875	16.41234674585407
O	7.264700050475944	5.618119070196952	16.255425816496757
O	7.506992775220367	6.707587514608839	17.01601351746036
O	8.73810118972402	7.348660337026457	16.967985591577968
O	9.74471302458252	6.516952175955254	16.47479156841037
O	9.462888720306784	5.461456398155869	15.67850625716851
O	8.186042242430814	4.935129265068381	15.57736584993701
O	6.337757848139772	7.253038204270945	17.50037379629897
O	6.144351445487678	8.379675602493304	18.26539840108785
O	5.3035669324588115	4.160129258312924	15.897619672426107
O	4.378355908887894	3.7220480695932867	16.827633337705297
O	3.1439670182197474	4.303706206137814	16.84292245886195
O	2.513145012407895	4.567900466311793	15.506955646492667
O	3.351255988087134	3.873179807329418	14.47233122822926
O	2.8743263000214405	4.310982997403746	13.161017463495483
O	3.667583268010696	3.5198012270272896	12.213186784161811
O	4.73779235589555	4.528284229283118	14.567502222163226
O	4.417408819514363	5.903207550293825	14.628199661413325
O	5.5538022530050455	6.573722159870995	14.236364826517658
O	6.216986944079079	2.951746881062366	15.705072873026786
