81

O	-4.896541972241071	0.9227671984505359	1.1484839501589286
O	-4.3634987022410705	-0.28685541954946403	0.8450683821589284
O	-3.9863888722410703	-1.301591206549464	1.8764657071589284
O	-4.1115010722410705	-0.9526617165494641	3.1570026471589285
O	-3.8392900022410705	0.40899244645053595	3.1769575771589285
O	-4.790825082241071	1.176658883450536	2.481682237158928
O	-5.80321912224107	1.739593813450536	0.3846779611589285
O	-7.157761372241071	1.654843073450536	0.7429780101589285
O	-5.75173904224107	2.153973893450536	-0.8228296728410716
O	-3.1664967322410704	-1.425545516549464	4.093830997158928
O	-3.8235560922410707	0.5510622234505359	4.601324207158928
O	-2.7256708722410705	-0.19833092454946408	4.615214637158928
O	-1.6205628072410705	-0.5948777505494641	5.4466264871589285
O	-2.4675069552410704	-0.9983875565494641	6.529259297158928
O	-2.2596806522410704	-2.397060316549464	6.525593647158928
O	-0.8647054992410704	-2.825637086549464	6.576609197158929
O	-0.11776187224107049	-2.137320936549464	5.536414197158928
O	-0.7876869352410705	-1.302384386549464	4.672588957158928
O	0.1663117177589295	-0.42267462754946405	4.1442791771589285
O	1.3736100577589296	-2.528510136549464	5.833479157158928
O	2.1668677177589295	-1.944803206549464	6.784250497158929
O	3.46141513775893	-2.454855076549464	7.068337607158929
O	3.80262757775893	-3.758158566549464	6.7186032971589285
O	3.2416042277589296	-4.025715396549464	5.473167637158928
O	1.8356595877589295	-3.7777803365494638	5.456204577158928
O	-5.02369489224107	10.727430193450536	-0.2142603128410716
O	10.91814007775893	2.712909993450536	-2.2885791428410713
O	11.62007567775893	-0.4828338595494641	-0.22246918284107142
O	13.72622087775893	0.694919170450536	2.7118088171589285
O	14.873031777758928	-0.927739676549464	6.009490167158928
O	12.70711747775893	3.996580603450536	6.758327867158929
O	10.289030577758929	3.6596826134505362	3.7958053771589286
O	7.842098457758929	0.8488181704505359	4.3558290071589285
O	6.488484137758929	-0.040837310549464045	0.8277815971589284
O	6.669331417758929	0.950177197450536	-2.8213841928410717
O	7.43467970775893	-1.356832606549464	-5.748257292841071
O	3.3212510377589295	-6.953988946549464	-2.6163871928410716
O	3.9301120077589298	-10.175614506549463	-0.7626506728410716
O	2.7907807277589294	-8.699839736549464	2.4342993271589286
O	5.60354545775893	-6.098384176549464	2.2032689171589284
O	8.146876037758929	-8.927117216549464	2.6566728971589284
O	10.86667577775893	-8.659772656549464	5.3132240171589284
O	-1.7334341167410705	-13.796026906549464	4.289986947158928
O	-4.126664982241071	-11.489131706549463	0.6230648931589284
O	-4.86799687224107	-13.604649806549464	-2.4273348128410714
O	-1.6706017002410705	-13.742705106549463	-4.644538122841071
O	-0.25163760224107046	-10.626189806549464	-2.9129226028410717
O	-1.1505118392410705	5.164189603450535	-8.73677680284107
O	1.8055247777589296	6.640137283450535	-6.827572082841071
O	3.6963507377589293	6.401755813450536	-3.5838594028410715
O	2.1205907477589294	6.726125983450536	1.8218370841589284
O	-0.1245860222410704	8.671413363450537	4.109948747158929
O	-2.1029705952410707	11.560190893450537	2.6161402671589284
O	-4.777353652241071	11.730400393450536	5.424346247158928
O	-7.743569262241071	9.317746203450536	5.703066087158929
O	-1.0561352552410703	10.193708893450536	9.43139796715893
O	-7.3770543122410706	6.562522633450536	-2.5172944428410715
O	-3.9594924522410704	4.984610193450536	-1.9514693628410713
O	-3.1479592022410703	4.511329893450536	1.7505822121589285
O	-0.46216981224107045	3.028715663450536	4.123464407158929
O	2.92920104775893	3.275216353450536	2.9443782871589286
O	1.6728603777589297	2.939597463450536	-0.6761293628410716
O	1.3728269177589294	-0.8185819535494641	-0.6761537728410716
O	3.5104550677589295	-2.665576666549464	-3.0091226228410712
O	3.45920344775893	0.16281417842053594	-5.504751032841071
O	2.3215380777589294	0.569832038450536	-9.083166392841072
O	0.01542406775892946	-3.541877676549464	-7.241816792841071
O	-1.3711176502410705	-1.563568726549464	-4.240304552841071
O	-2.6017824232410707	-4.306934296549464	-1.9506182928410714
O	-5.4197546122410705	-3.560173226549464	0.6134423261589285
O	-8.46685213224107	-1.479123696549464	1.6840880741589284
O	-10.83367666224107	-0.5094322685494641	4.546089267158928
O	-9.369561182241071	2.714342693450536	6.012779877158929
O	-8.294121792241071	5.127800313450535	3.3413179171589285
O	-10.51056782224107	7.144603853450535	1.0679517792589284
O	-13.69839332224107	6.198282523450535	2.8684629671589286
O	-14.66577292224107	1.356096923450536	0.3314181701589285
O	-8.64745232224107	0.26723907825053594	-2.5424271428410714
O	-8.117990662241072	-3.3073311365494638	-3.835984532841071
O	-5.186520532241071	-4.160617746549464	-6.109496262841072
O	-3.3720298922410707	-7.344308756549465	-7.224545132841071
