73

O	-2.6397870426166663	0.6830568390053331	-0.9212393163266666
O	-1.4085664616166664	1.3127058580053332	-1.3396079843266666
O	-3.8141650526166666	1.146702983005333	-0.7844464303266665
O	-2.6613166026166666	-0.5412380089946669	-0.21892546882666658
O	0.048578146383333576	0.3872963302053331	-1.4746188643266667
O	1.0766669973833336	1.640897691005333	-2.0599727043266665
O	0.24219507738333357	2.688067651005333	-2.2905834943266665
O	-0.9753487136166664	2.5348825010053333	-1.7346944343266666
O	2.2895073373833337	1.6038618410053331	-2.6758983643266667
O	2.8287755273833333	2.638369951005333	-3.450100464326667
O	2.1010022273833333	3.7407515510053333	-3.4883242043266667
O	0.8620958873833336	3.784916101005333	-2.8783734143266666
O	0.002246229383333631	4.9185336110053335	-4.353297064326666
O	-3.3076192826166664	4.495952031005333	7.757020305673334
O	-4.774315092616666	3.689143391005333	11.179099265673333
O	-3.2281864626166663	0.7073975940053331	12.853361465673334
O	13.047436747383333	2.391082151005333	0.4648251016733334
O	10.636747247383333	-0.43941320199466694	1.2857307056733334
O	9.932755347383333	-3.160188448994667	3.7579275856733334
O	9.009472187383333	-2.047045468994667	-7.973718754326666
O	11.092603347383333	-1.032175428994667	-4.954258254326666
O	14.378762247383333	-1.7689874689946667	-6.799153424326666
O	3.7299521273833336	-1.896926948994667	-14.381777934326665
O	0.6670420773833335	-0.46340215599466694	-16.046235834326666
O	-1.5699030436166663	2.400859101005333	-15.142638134326667
O	-2.1073147526166665	1.028764205005333	-11.611550534326666
O	-0.8819420539166664	-2.4623593389946667	-11.076333234326666
O	2.5002407973833334	-4.026570578994667	-10.892504334326667
O	0.31081838738333356	-5.7742200689946666	7.4935941856733335
O	3.2147238073833333	-3.977098778994667	8.998167285673334
O	5.493397357383334	-1.173750978994667	7.819224445673333
O	4.883491167383334	3.8700549510053333	5.255941435673334
O	2.7386957173833335	7.023352011005333	5.398809085673334
O	-0.018147043616666414	7.4508703310053335	7.960593645673335
O	-1.9633012026166665	9.876615481005333	5.689440435673334
O	-1.5790611826166665	9.922772591005334	1.8687921156733336
O	-0.8930743913166664	13.666575431005333	2.1746631656733335
O	2.1270767073833334	13.309213531005334	4.475837045673334
O	5.630966117383334	13.678295231005333	2.9010716356733335
O	0.7652627173833336	-2.610749598994667	12.156301665673334
O	-2.662225232616666	-10.843713268994668	-6.840669284326666
O	-4.848373842616667	-10.742003868994667	-3.7051947343266667
O	-6.847202712616666	-7.830950238994667	-2.2997842643266666
O	-7.361773622616666	-7.0179734989946665	1.3856847956733334
O	-7.047932542616666	1.226495361005333	7.803840185673334
O	-4.777877472616666	0.13850638100533308	4.892801015673334
O	-1.1583657996166665	0.027368840005333128	3.6263283456733335
O	0.1440123273833337	3.124476681005333	1.7739837456733334
O	3.2811887973833334	4.602007711005333	0.2861687446733334
O	6.435885617383334	3.4512200810053333	2.0978359956733335
O	4.734759097383334	0.10253748300533311	3.006208695673333
O	5.598686757383334	-1.518714078994667	-0.39927417632666656
O	7.506985067383334	-4.863062108994667	-0.01884655732666657
O	6.322568817383334	-5.737631858994667	3.4502508956733333
O	4.129123337383334	-8.630290898994668	4.4425041256733335
O	0.4824689573833335	-9.493972968994667	4.653789355673334
O	3.5547999073833334	-8.627098328994666	-0.24446691482666658
O	2.2860010773833337	-5.0103686689946665	-0.30168120432666656
O	2.3350062673833336	-3.9107152489946673	-3.9885601943266664
O	-0.21300980961666638	-1.177230928994667	-4.965180524326666
O	-3.5347231726166664	0.4561974823853331	-4.504901984326666
O	-5.370573782616666	3.558880211005333	-5.560798274326666
O	-5.036019882616666	6.172189291005333	-2.7531765543266666
O	-4.762967442616667	4.860664571005333	0.8087570556733334
O	-7.822308612616666	3.669002301005333	2.6615309256733335
O	-10.140775542616668	4.796215721005333	-0.12548376492666657
O	-13.586558952616667	3.3188742110053333	-0.28172269862666655
O	-13.769127152616667	0.5004151233053331	-2.8505168443266666
O	-10.008889762616667	0.742304659005333	-3.431376074326667
O	-8.613730022616666	-2.305284418994667	-1.5232700443266667
O	-4.876498772616666	-2.782167768994667	-1.1523518293266666
O	-3.5128051826166664	-5.2502913889946665	-3.7033752843266665
O	-0.6963263096166664	-7.683946128994666	-2.8512828143266664
