89

O	-2.305897137374576	2.056146481098305	-0.9010129047254236
O	-2.188256637374576	2.3964407198983046	-2.060967750725424
O	-2.521991827374576	3.6396000098983046	-2.5681359807254234
O	-2.287818337374576	4.854948679898305	-1.7608260147254238
O	-2.693275147374576	4.370582899898304	-0.3845626717254237
O	-3.480632307374576	3.764570509898305	0.5445843092745764
O	-4.725580737374576	3.0462791048983044	0.7129500892745764
O	-5.3839277373745755	2.8909469358983046	-0.44140852572542366
O	-6.297852047374576	1.9762236738983046	-0.4305776357254236
O	-5.443690007374576	4.215942179898304	-0.9109531397254237
O	-4.105387767374576	4.766745819898304	-0.8467467957254237
O	-2.926787027374576	3.2092273198983046	-3.830400350725424
O	-4.086783267374576	2.971601962898305	-3.3364389607254235
O	-1.946583634374576	2.0876932286983045	-4.093560870725424
O	-0.6282002023745759	2.2891132818983047	-4.396823700725424
O	-0.14835527137457594	3.4318845698983047	-3.5287379007254236
O	-0.858796751374576	3.9099494598983044	-4.625900100725424
O	-0.7072290493745759	2.875749413898305	-5.833445050725424
O	0.43884476262542416	1.9743004758983047	-5.1717611107254235
O	0.07426275262542403	2.5748565268983046	-2.4630330607254236
O	0.30896158262542417	3.0200097748983046	-1.0774743941254237
O	0.2327389726254241	2.3937658338983048	0.10228018927457638
O	0.8805747926254242	2.8349463998983047	1.3218213292745764
O	0.5501347426254242	4.024278209898305	1.7824660692745762
O	0.671431882625424	4.798315339898305	0.7073467192745764
O	0.5876724626254242	4.336027449898305	-0.6506027917254237
O	0.6796073726254241	4.231172589898305	3.197959989274576
O	0.3575632326254241	5.296536179898305	4.032187359274577
O	1.3185850226254239	3.6208553498983047	4.119411109274576
O	-1.178496430474576	1.7215546668983046	-2.8581154707254237
O	7.553080672625425	-1.9653118601016955	-5.211186210725423
O	8.928526402625424	-3.797743750101695	-2.2599635907254236
O	1.0902035126254241	-7.123562790101695	-2.7601503307254234
O	-1.321472682374576	-7.816852560101695	-5.635000880725424
O	-1.613997482374576	-4.044636160101695	-6.347949220725424
O	2.105284562625424	-4.091154400101695	-7.237625630725423
O	1.2910375026254242	-6.226813390101696	-10.239275790725422
O	-2.335123427374576	-5.5364567801016955	-11.043296840725425
O	-4.2695660473745765	-2.351750810101695	-10.642899630725424
O	-7.6765065873745755	1.9213276498983047	-12.408367340725423
O	-4.123472327374576	2.9445690328983045	-13.333224240725425
O	-3.7005519273745757	0.5616212898983046	-16.293344740725423
O	-1.184118030074576	-1.4231446001016952	-14.304863440725423
O	-0.9476625073745759	-5.060757500101696	-15.402671540725425
O	-8.893836747374577	-3.9491126601016955	-6.771276250725424
O	-13.052111497374575	-1.4485127601016954	-4.0480138607254235
O	-10.671736527374575	-1.6205034201016955	-1.0862949912254236
O	-7.671393427374577	-3.7672864701016957	-2.0815558007254236
O	-9.130910127374575	-6.641711050101695	0.020011199274576397
O	-6.843539687374577	-9.734788420101694	-0.20184624972542364
O	-3.907959407374576	-7.700266270101696	-1.5369583637254238
O	8.504830912625424	-1.8735846301016954	7.884001599274577
O	11.288075202625425	-1.3702238201016952	5.367029459274576
O	11.526548002625425	0.05792069989830484	1.8814964592745764
O	13.125533902625424	2.364780147898305	-0.6829359907254237
O	9.895824302625424	4.377616109898305	-1.2110739527254237
O	9.379068402625425	8.096918289898305	-0.7519794417254237
O	4.615068442625423	12.329851179898306	1.1342835992745761
O	5.441296962625424	15.333117279898303	-1.0580949792254237
O	-12.848258497374575	2.7940021518983045	3.204748049274576
O	-7.841116037374576	-9.506408520101694	5.793244169274576
O	-6.288436357374575	-6.212168190101695	6.838980109274576
O	-4.820357187374576	-4.650262730101695	9.960876959274575
O	-3.423939887374576	-1.1831008001016952	10.484984359274577
O	-0.378472411374576	0.2566658398983046	12.181653659274577
O	1.1634818226254242	3.587295389898305	13.051551859274575
O	4.627399452625424	5.271878119898305	7.704421359274577
O	5.098890522625425	3.6259521098983045	4.417717549274577
O	4.471270102625423	5.5934420698983045	1.1864432392745763
O	5.022284802625425	5.408514719898305	-2.4982603407254236
O	7.433848752625424	2.8096014138983048	-3.4827344807254237
O	7.206486082625425	0.8455502898983047	-0.2501193257254236
O	4.206974902625424	-1.2114542001016955	-0.9177120709254236
O	4.391464222625425	-4.932256100101696	-1.3564824387254237
O	7.207076202625425	-4.789302810101695	1.2494400592745762
O	2.446102962625424	-2.9768748401016953	2.951150989274576
O	-0.9728175123745759	-2.588600290101695	1.2778324592745762
O	-2.240324527374576	0.7126093298983047	1.5913120192745764
O	-2.905348707374576	4.309243919898305	3.2810430892745766
O	-4.183795277374577	8.022802859898306	2.925202689274576
O	-1.2022710765745759	10.144356799898304	2.1541540492745765
O	1.853582982625424	9.188610789898306	4.053472339274577
O	-0.526292606374576	11.946976579898305	8.159811779274577
O	-4.263443907374576	8.154718319898304	9.432015159274577
O	-2.774574017374576	4.703553269898304	9.485195859274576
O	-0.996122264374576	2.4717341388983045	7.108660749274576
O	-2.962148117374576	-0.6983340201016954	6.208385359274576
O	-1.420037875374576	-4.115672460101695	5.795241239274576
O	-2.481526887374576	-7.426620730101695	4.270796499274576
