76

O	-0.8541654776783334	0.6474340806499999	-0.08233956516000052
O	-0.36277658467833335	-0.3955473863500001	0.6502787838399996
O	-1.1542926636783335	-0.1766194563500001	-1.3397063001600005
O	-2.0588553186783334	-1.0100297963500002	-0.7124344061600005
O	-1.5169502686783334	0.7553825816499998	-2.3440737061600005
O	-1.0655786326783334	0.5967079786499998	-3.6333053161600004
O	-1.3475450286783333	2.1513706836499997	-1.9745838361600003
O	-1.6674209866783334	3.0214619636499997	-3.0027360861600005
O	-0.7906311021783333	4.08581551365	-2.9959052961600006
O	-0.5924030796783334	4.9396054736499995	-3.9139687661600004
O	0.1894012253216666	3.68190177365	-2.0057842861600004
O	0.7464423613216667	4.57766287365	-1.3969323631600004
O	-0.12143174667833334	2.43999864365	-1.4242664871600006
O	0.15101351132166663	1.7160213686499999	-0.1861415721600005
O	0.06985396632166663	2.55843974365	1.0389685738399996
O	1.2568428513216667	3.09982794365	1.4795053638399995
O	4.4793023513216665	-1.94658882635	-15.15263555616
O	1.1141330013216666	-1.28043369635	-13.51243395616
O	0.47675678132166655	-1.89281515635	-9.809558906160001
O	-3.0414100386783334	-3.3371411363500005	-9.48824608616
O	-4.370817898678333	-3.88120369635	-5.94607526616
O	-8.848231548678333	-4.47769197635	-3.4258276761600004
O	-7.845006878678333	-1.4598854963500003	-1.2804831751600005
O	-9.860466948678333	1.7435999996499998	-1.6782866761600004
O	-12.236274548678333	-0.04159540635000014	-4.06702799616
O	-9.548077708678333	0.3340134186499999	-14.23565015616
O	1.2681046513216665	-9.914839396349999	-4.293730866160001
O	0.9038815113216666	-11.11265279635	-0.6807480161600005
O	1.5170801513216667	-9.381054396349999	2.5922339038399995
O	7.1393665313216665	-3.7929618563500007	-4.88227326616
O	4.407944461321667	-2.9934386263500006	-2.3156943961600005
O	4.348926981321666	-5.33259845635	0.7121966838399995
O	5.126814501321666	-3.2013915763500007	3.7931040538399996
O	8.378062391321667	-4.951433086350001	4.72741258384
O	9.696006051321666	-1.5821835563500002	0.8231771338399995
O	13.679111551321666	0.7531607746499999	5.9293873238399994
O	11.655548051321666	5.720629713649999	-1.4903107281600005
O	9.079467981321667	4.47368382365	-3.9617263161600005
O	8.351255761321667	2.3761567436499997	-7.02137445616
O	6.717418791321666	5.26273522365	-8.87620423616
O	8.461779281321666	6.953529273649999	-11.75204765616
O	9.870563651321666	9.87838213365	-9.75330329616
O	11.756126051321667	7.4090341636499994	-7.538962236160001
O	4.972535481321667	2.5696320036499998	-13.778692256160001
O	2.7220534913216667	3.37363315365	-10.84524105616
O	-0.6988075240783334	2.41669456365	-9.39633569616
O	-3.1704928286783334	1.2735635486499999	-12.031160056160001
O	9.558579551321667	-1.0520221063500002	7.73571724384
O	9.778499351321667	2.7366413536499996	7.99655462384
O	9.437356351321666	4.8811224936499995	4.86847495384
O	7.1987395213216665	2.62988973365	11.37404434384
O	4.497301761321666	0.4773260706499999	9.782082943839999
O	-3.4042252786783336	-12.74295349635	1.2914162038399994
O	-3.1711772686783335	-9.48650259635	-0.6595155755600005
O	-1.1766597786783333	-6.76215533635	1.1217317438399994
O	-4.3771223186783335	-4.744403316350001	1.7685665438399996
O	-6.396703748678333	-7.783106716350001	2.7784203838399995
O	-3.0363503386783335	-6.44017884635	6.62289618384
O	-6.250436538678334	-4.642061556350001	7.549984243839999
O	-5.419893138678334	-1.6047682363500002	5.4269088738399995
O	-8.456154878678333	-1.5096217663500002	3.1064667438399995
O	-11.506268848678333	0.7549980756499999	3.2319120938399997
O	-13.661327848678333	-3.49663352635	0.8824332138399994
O	-13.109260348678333	-5.29007458635	4.20108026384
O	-1.4447992496783333	6.452343613649999	14.23309524384
O	-3.6187068586783333	4.86990622365	11.55878854384
O	-4.286700028678333	1.5488958456499997	9.82524664384
O	-0.6182965676783334	1.3245297166499999	8.838686063839999
O	1.3416144013216664	3.3128586236499995	11.38579914384
O	-5.892648858678333	8.75524781365	8.627859193839999
O	-2.1466919286783335	8.13645175365	8.76159019384
O	-1.4349761556783334	9.690882453650001	5.35386509384
O	-0.6821313955783334	6.49660184365	3.49688854384
O	-3.5472190586783334	6.606770883649999	1.0177563038399997
O	-6.359033658678333	4.85852007365	2.9347656538399995
O	-8.317960378678332	8.06295611365	3.52300265384
