74

O	2.6751690526717304	-0.30093339009615383	1.5577910464615385
O	1.5867214626717305	0.6122213711038461	1.1607590964615384
O	1.7030476026717305	1.9280580259038462	1.3355098364615385
O	0.6989197926717305	2.7469980359038457	1.0582652464615385
O	0.6590008326717305	4.139356465903846	0.8612197464615385
O	1.8845255026717305	4.816570265903846	1.0825738764615385
O	0.34636585267173037	0.1510969909038461	0.8989731464615385
O	-0.45400132532826953	1.5499972399038462	1.5159193764615384
O	-0.30472408532826956	-1.125384124096154	0.7839756564615386
O	0.3106667726717305	-2.3683002640961535	0.6781289994615385
O	-1.6276576693282694	-1.171846204096154	0.7667348924615385
O	-2.44454505732827	-2.256854344096154	0.6011679304615385
O	-1.8411847163282695	-3.3745373240961536	0.2390847304615384
O	-0.5061265883282695	-3.4851394940961535	0.48540269446153844
O	-3.7834437473282696	-1.788950904096154	0.2452504804615384
O	-3.9231754873282694	-0.46267633409615394	-0.3299820375384616
O	-4.27032918732827	0.7491159861038461	0.2608533584615384
O	-3.5385010973282696	1.941067865903846	0.2285584554615384
O	-2.6768512273282696	-0.12989008209615382	-0.9350951555384617
O	-2.1366876473282694	1.091224365903846	-1.2046533285384615
O	-2.1664455073282696	2.021357495903846	-0.2549845239384616
O	-1.9818591903282696	3.370799945903846	-0.6564836775384616
O	-9.15548410732827	0.9080735099038462	8.724301716461538
O	-6.763412057328269	3.6966330159038465	7.811492676461539
O	-5.73972868732827	2.616878445903846	4.335142686461538
O	-3.2680890673282694	5.450612735903847	3.6984899064615386
O	-1.3988112063282696	8.484184415903846	4.829824406461538
O	1.9686671926717305	9.798476275903845	3.6961076264615387
O	5.52396728267173	10.952308025903845	4.527149856461538
O	3.5562927526717307	7.488551415903847	8.449570636461537
O	0.09265882267173042	6.010257805903846	8.249712846461538
O	-1.0142311423582695	2.7901996059038465	6.611579466461538
O	-3.5222083373282698	0.3647728559038461	8.010700256461538
O	-5.31464882732827	-2.7205119240961535	6.831257106461538
O	-4.76621957732827	-5.1691335340961535	9.614779076461538
O	-4.93079759732827	-9.502594074096155	6.389900166461538
O	-1.8571791743282695	-7.421886714096154	5.822433116461538
O	-0.9756583170282696	-3.7740986340961538	5.447260236461538
O	0.7962566326717304	-2.131706754096154	8.344765906461538
O	2.8237434126717305	1.0312943429038461	8.341602176461539
O	6.48161331267173	-5.854881194096154	-6.063881573538462
O	4.45450703267173	-5.815929894096153	-2.8978496835384617
O	7.59953308267173	-6.982814144096154	2.6315129164615385
O	6.32688025267173	-2.6162554040961536	8.167496146461538
O	4.190236552671731	-5.648897834096154	7.282862926461538
O	3.2914558126717304	-6.010846254096154	3.5980055164615385
O	1.2762641326717303	-8.458744864096154	1.5367696064615384
O	-2.1978886173282692	-6.895159004096153	1.1584415264615384
O	-3.7604489773282697	-5.799168204096154	-2.1320356135384615
O	-7.318656337328269	-4.622301604096154	-2.5394408235384613
O	-7.08220764732827	-1.2579379740961538	-4.151449393538462
O	-4.57704743732827	1.4051707989038462	-5.009846523538462
O	-4.54066710732827	2.722437235903846	-8.521779013538461
O	-5.819893917328269	6.146913895903847	-7.346696303538462
O	-9.16914273732827	4.876347165903846	-6.137589263538462
O	-0.5362696543282696	-2.845834074096154	-16.03583497353846
O	-1.0274705535282695	6.1584260459038465	-8.03673947353846
O	-1.2518214273282695	5.865339455903847	-4.310740863538462
O	1.3638283026717306	3.078544775903846	-4.099574413538462
O	0.4933523326717304	1.0724672049038462	-7.252565883538462
O	-1.7591147913282694	-1.8513930540961538	-6.152443263538462
O	-3.9660311773282695	-4.146347114096153	-8.001562523538462
O	-5.74102599732827	-7.396910484096154	-7.276100523538462
O	-2.0096611523282695	-8.043904104096155	-11.480570673538463
O	-0.4497422133282696	-4.759636344096154	-10.348406973538461
O	2.4827573526717304	-4.252152304096153	-7.967465053538462
O	4.88549051267173	-1.6326400840961537	-6.648560033538462
O	4.696999962671731	-0.8377712440961538	-3.0275633435384615
O	6.95727336267173	1.2662098159038462	-0.6879847865384616
O	9.66115225267173	0.36051261590384615	-3.2447096835384617
O	12.97792175267173	1.6790680659038462	-2.096430363538462
O	11.57406425267173	3.038559535903846	1.1668125764615385
O	3.5596685626717304	13.874062125903846	6.521449366461538
O	2.8789729226717307	15.313155625903846	-0.3315994265384616
