89

O	-0.8406367296112678	-1.1706480071267609	-0.3214548905915492
O	-1.321993312711268	-0.07456294712676081	-0.7879012646915493
O	-1.968977921711268	-0.07606555712676077	-2.067733058591549
O	-3.485387031711268	-0.06577548712676085	-1.7396553875915493
O	-4.338851471711267	0.12372603487323919	-2.9527545785915494
O	-3.7480492617112677	-0.7736723071267608	-3.924885248591549
O	-3.227881431711268	-1.9884052071267608	-3.208368288591549
O	-1.9279490517112676	-1.5239496471267606	-2.6111358085915493
O	-2.707519731711268	-0.08484812712676071	-4.625977508591549
O	-2.472811691711268	1.3769061418732391	-4.490709818591549
O	-1.6478614117112678	-0.9451074871267608	-4.95389943859155
O	-0.4044199617112678	0.9049373628732392	-0.2212352055915493
O	0.3534776282887321	1.0295067546832393	1.1221513214084509
O	1.0097947382887322	0.3622379178732392	2.000833911408451
O	2.151571748288732	0.8677509408732392	2.6435888814084505
O	2.200222318288732	2.1438094028732393	3.117515171408451
O	1.601529758288732	2.8214343928732393	2.184221491408451
O	0.47185641828873226	2.4147767228732393	1.4478224114084506
O	-6.458844801711268	8.14727140287324	8.265467621408451
O	-6.932510911711268	6.076816152873239	5.106702411408451
O	-3.8286437117112677	5.838373802873239	2.8729241514084505
O	-5.222702931711268	3.7483749728732394	-0.006806692591549202
O	-7.914101191711268	1.2773664798732391	-0.9940750505915492
O	-8.170059841711268	-2.055325937126761	-2.7858506285915494
O	-10.947186571711267	-4.519359947126761	-3.5429035885915496
O	-11.002111271711268	-6.335122837126761	-0.13272345459154922
O	-10.493379061711266	-3.3850772871267605	2.147685921408451
O	-8.140432771711268	-0.5459019571267607	2.874128861408451
O	-4.803813081711268	0.5576866168732393	4.32797812140845
O	-4.849545481711268	3.0194074728732394	7.15543738140845
O	-2.279005651711268	5.005784722873239	9.089983121408451
O	-2.480549071711268	3.8478508428732394	12.736086871408451
O	2.2479009082887322	1.9137394288732392	11.214106571408452
O	0.23151458828873228	1.1828612108732393	8.03416634140845
O	-2.555804641711268	-1.3044915471267609	8.74336474140845
O	-4.043139221711268	-3.3613803771267605	5.89325428140845
O	-7.600953221711268	-4.458144207126761	6.62300878140845
O	-9.340759761711267	-7.214660057126761	4.6297973914084505
O	-12.259985171711268	-12.22526201712676	0.11867404140845073
O	13.499477928288734	-3.037984047126761	-0.3039612915915493
O	10.512000628288733	-5.040923077126761	1.0799476714084508
O	7.9700974382887315	-3.473742027126761	3.4858416714084504
O	8.401822408288734	-5.080077367126761	6.929378891408451
O	5.389618578288732	-6.852525387126761	8.444911311408452
O	2.025017348288732	-7.722451707126761	13.433419571408452
O	-0.8988763127112678	-9.70168381712676	12.111612971408452
O	-5.2633136117112675	-7.3349751471267615	9.66753027140845
O	-1.6705963567112678	-6.8916472771267605	8.674623101408452
O	0.4057228682887323	-4.131069577126761	10.222904971408452
O	3.412389268288732	-2.948008687126761	8.23434572140845
O	4.473277988288732	3.051587072873239	7.46500020140845
O	6.396240998288732	4.323610592873239	4.51052854140845
O	5.907953588288732	8.122729002873239	4.47812328140845
O	7.264717348288731	9.16004461287324	1.0331773314084507
O	4.065717688288732	7.984739942873239	-0.7598620365915493
O	3.575763108288732	5.859547942873239	-3.9036229685915496
O	5.976075048288732	6.129066002873239	-6.89987932859155
O	2.805603958288732	6.448961592873239	-8.995510978591549
O	1.8802086382887322	9.823997272873239	-7.364951608591549
O	5.310256918288732	11.375905082873238	-8.066511128591548
O	3.128464148288732	-10.932798417126762	-10.193984908591549
O	1.961369198288732	-7.371977017126761	-9.49116717859155
O	4.871600318288732	-4.984532327126761	-10.270019338591549
O	3.6613354982887323	-1.385063917126761	-11.062864228591549
O	4.354571768288732	2.1743106428732393	-9.737401008591549
O	1.2369549782887321	2.0138735888732393	-7.60239349859155
O	2.878645218288732	-0.7853030471267608	-5.4919711085915495
O	6.179663838288732	0.9213479778732392	-4.94769668859155
O	6.477899788288732	3.198242192873239	-1.8912552385915493
O	9.318932428288733	5.762231452873239	-1.4314521155915494
O	10.906265128288734	5.952047142873239	2.0246792414084505
O	11.849245828288733	1.9701834838732393	-2.736806208591549
O	9.793837228288734	-0.37948684712676073	-0.5533658425915493
O	7.840852218288732	-3.063909057126761	-2.4636245285915495
O	4.503868348288732	-3.6689272771267607	-0.9736678325915492
O	1.3027832082887323	-5.66180710712676	-1.6299595245915492
O	1.9902016782887322	-9.244595017126763	-1.8188684815915492
O	-1.5565632497112678	-10.239131917126763	-2.6885639285915492
O	-2.1077061017112677	-8.94334901712676	-12.138057028591549
O	-2.715104181711268	-5.514442087126761	-13.69093222859155
O	0.4226074082887322	12.08750218287324	5.34587580140845
O	-0.7075579362112678	10.485750302873239	0.02082621840845078
O	-9.840605871711267	9.02586582287324	0.6154610914084508
O	-13.320530671711268	8.968827392873239	2.0988921614084504
O	-5.375181181711268	6.930195202873239	-12.61841442859155
O	-4.453577201711267	4.15638193287324	-10.219986678591548
O	-4.922101861711268	0.8289862018732392	-11.911174028591548
O	-6.754469221711268	-2.002106977126761	-10.122114068591548
O	-5.520763341711268	-5.5742234271267606	-10.26744775859155
