90

O	-1.6763882330294115	-2.7519787624532652	0.6112914705735295
O	-0.40911597802941163	-2.3487722624532656	0.018966394573529444
O	-0.8417842074294116	-3.3452834324532654	-1.1584221944264705
O	0.8788650429705883	-3.3666809324532654	0.5168771305735294
O	0.47719986297058836	-3.897008282453265	1.7333336505735293
O	-0.3105797210294116	-5.130332792453265	1.4928782805735294
O	1.3873302929705886	-4.468633662453265	2.8158293405735293
O	2.4806480729705886	-4.796457632453265	1.9568126005735293
O	2.1011703429705886	-6.1120841324532655	1.4357431805735295
O	1.4015697229705886	-5.726277372453265	0.19900386057352937
O	1.4894821029705887	-4.323372752453265	-0.31172742242647056
O	-0.27189625402941164	-0.8908627424532654	-0.8163369769264706
O	-0.7368109504294116	0.3629396945467346	-0.5400961994264706
O	-1.0114405600294116	0.6890458835467346	0.7211368405735294
O	-1.3212944070294115	-0.49032586745326545	1.6080757305735296
O	-0.5376634260294116	1.4153002495467346	-1.4386843494264705
O	-0.17855860702941162	1.1824370775467345	-2.7358118394264705
O	0.2432890229705883	-0.04933541245326545	-3.0672201394264706
O	0.1713842709705884	-1.0883441824532654	-2.1332731894264705
O	-0.9144543120294116	2.7261843075467347	-1.1608348054264706
O	-1.5251179000294117	2.9393219075467343	-0.005383551426470512
O	-1.7169736290294115	1.8877272575467345	0.8491398305735294
O	-12.348060897029413	-0.0717674614532654	2.5651384405735294
O	-9.762006767029412	-2.8780590124532655	2.1312954005735296
O	-6.350014087029412	-1.6346022324532654	3.2624062205735296
O	-4.372856977029412	-4.848104072453265	2.5854317805735296
O	-4.1784806870294116	-8.229361732453265	0.8352873805735295
O	-2.022044387029412	-10.647329282453265	-1.0474841294264705
O	-2.1094761370294117	-13.891974182453266	-3.0537246994264704
O	-3.4327929670294117	-12.337435682453265	-6.3280295394264705
O	-6.029711947029411	-10.111341782453266	-4.7421219994264705
O	-6.3295044870294115	-7.013676352453265	-2.581510759426471
O	-5.664268927029411	-3.2714309124532654	-2.1836819094264706
O	-8.686393387029412	-1.0046484724532654	-1.4790644794264707
O	-9.050534057029413	2.6697016475467343	-0.6070874864264706
O	-11.205899797029412	4.225749767546734	-3.3189720494264705
O	-6.367753427029411	6.537585247546735	-4.205308469426471
O	-5.265004147029411	2.9997364475467343	-3.3581415294264705
O	-6.468168067029412	0.4820596836687346	-5.9590137994264705
O	-4.664074367029412	-2.826583642453265	-6.364122069426471
O	-6.886147387029411	-5.568438422453265	-7.80889026942647
O	-5.395246527029411	-8.782255462453266	-9.337474079426471
O	11.194985202970587	9.539294557546734	-8.226184189426471
O	10.450916202970587	7.830562747546735	-2.8758576694264706
O	8.487855402970588	5.624994427546735	-5.34922960942647
O	4.676976412970588	5.422157677546735	-5.211694269426471
O	3.0285980129705883	7.076287717546735	-8.238063129426472
O	0.8023413129705884	4.9597866775467345	-10.513224089426469
O	-4.301212197029412	4.895781097546735	-13.629263879426471
O	-6.413952757029412	-2.8328441824532655	-11.732502779426472
O	-3.6438066970294116	-0.4228968394532654	-10.776443569426469
O	-4.641574657029412	2.845756837546735	-9.09774472942647
O	-1.8845508370294115	4.524640957546735	-7.07401766942647
O	-1.4823639670294115	7.512224577546735	-4.81281565942647
O	-2.8407143470294116	6.8178906775467345	-1.3050087474264704
O	0.022959570970588317	6.953622777546735	1.2754500705735294
O	-1.7186761970294118	7.337314317546735	4.64760081057353
O	1.0602751429705886	6.924884157546734	7.267743170573529
O	1.0199528029705882	3.122501817546735	7.317241840573529
O	3.650572682970589	0.3967135299467346	6.664423580573529
O	7.075490032970588	0.8594562235467346	8.23550622057353
O	6.523159652970588	-2.7874763424532656	9.35370782057353
O	3.720973032970589	-1.7405006424532654	11.78953892057353
O	5.647854452970589	1.1000199785467346	13.371296620573528
O	11.659250202970588	-7.353667902453266	-2.6776474894264704
O	13.015503802970587	-4.827672552453265	-0.15633783842647053
O	11.411908902970588	-5.323321002453265	3.3159583705735294
O	9.636655202970587	-3.1060107824532652	5.8911850405735295
O	6.1847887229705885	-4.426584082453266	4.709796790573529
O	6.779295502970588	-2.7378403224532653	1.3166422005735297
O	7.721764342970588	0.6952106905467346	2.5945393405735295
O	4.945593542970588	3.1589998875467344	3.4723049105735297
O	5.364528282970588	6.381107057546735	5.45669905057353
O	3.867700482970588	9.546064917546735	3.9657511405735297
O	9.327677302970587	6.603396967546735	2.6202932205735294
O	7.458511972970588	5.466853647546735	-0.4670382244264705
O	8.445619242970588	2.151782997546735	-2.01840406942647
O	5.572541662970589	0.08715501054673458	-3.2855407794264706
O	5.118679732970588	-3.4235572024532654	-4.6800800094264705
O	7.089893152970588	-3.8235312124532648	-7.91983545942647
O	5.734005102970588	-7.353796952453266	-8.376555439426472
O	2.4128307029705884	9.701855057546735	11.678264320573529
O	-8.376898107029412	8.339066417546734	7.25956360057353
O	-7.249724627029411	4.680367957546735	7.46718399057353
O	-2.7017481870294118	3.6355670775467344	10.414063520573528
O	-3.7349918270294116	0.38844015884673455	8.692356860573529
O	-5.197595647029411	-2.8518234624532655	10.078421520573528
O	-9.526315327029412	-6.851115022453265	6.9832501605735295
O	-12.644980197029412	-8.718645502453265	5.843627570573529
O	3.837887222970588	-9.796298682453266	7.736146680573529
