81

O	-0.02932526832352944	3.728010599310294	0.4249883595147058
O	-0.5733197033235293	4.701428189310294	1.3887364245147058
O	1.3305638346764708	3.7012174693102935	0.7115637335147058
O	2.013852654676471	2.415539499310294	0.45758548651470576
O	1.4360191646764706	1.2721859173102938	-0.09011734408529419
O	1.9604349546764706	0.08967214731029383	-0.5922635704852942
O	1.3542608946764707	-0.8464048506897062	-1.2741893754852942
O	1.9136402346764707	-2.079760180689706	-1.7533707554852942
O	0.1952210686764706	-0.5855504006897061	-1.928055915485294
O	-0.4012842893235294	0.5769027412102938	-1.5359320654852942
O	-1.5238324393235294	0.5937304015102938	-2.001149615485294
O	0.16485267167647055	1.4217950673102937	-0.5732849194852941
O	-0.3335805243235294	2.466112699310294	0.2888497285147058
O	4.40394267467647	0.6100383512102938	12.937368484514705
O	7.4689843146764705	2.8053747593102942	12.702614784514706
O	9.01805636467647	2.5611308493102936	9.254205134514706
O	12.545022014676471	1.1767983663102939	8.876868374514705
O	7.807528654676471	-2.002881960689706	8.854985604514706
O	10.45299031467647	-2.849921620689706	6.240172944514706
O	10.388855014676471	-2.836838940689706	2.4613812245147058
O	5.97307275467647	-6.455689180689706	8.400792424514705
O	7.51685712467647	-6.083666100689706	4.9634819145147056
O	5.92298503467647	-4.215536650689707	2.082903854514706
O	5.9975860546764705	-6.034774180689706	-1.2234881054852942
O	8.01295212467647	-3.552709600689706	-3.2196922654852944
O	5.5754502046764705	-2.505362120689706	-5.955706805485295
O	4.8492095046764705	0.8711387413102938	-4.360489855485294
O	8.49924935467647	1.9252775193102938	-4.079414165485295
O	9.48733941467647	0.8881153733102938	-7.607228445485294
O	6.90010059467647	3.123410689310294	-9.291872885485294
O	10.07581581467647	5.377541649310293	-5.449046305485294
O	13.65236581467647	5.923476109310293	-6.651600285485294
O	7.984188394676471	-4.910414630689706	-12.982139015485295
O	8.577429924676471	-10.411173590689705	-4.0023094154852945
O	7.360647584676471	-13.222765590689706	-1.787136255485294
O	4.40374188467647	-10.670843690689706	4.198350064514705
O	2.4599476346764706	-8.362470660689706	1.9043576145147059
O	1.0517834846764704	-9.574841190689705	-1.3864995554852941
O	2.631308594676471	-7.964388950689707	-4.431613185485294
O	0.2556519286764706	-5.421802800689706	-5.922824685485295
O	-0.056856041323529394	-2.475590640689706	-8.275516555485295
O	-0.9423894233235294	0.7120697603102938	-6.361396875485294
O	-3.0126093753235295	2.867859569310294	-8.810425815485294
O	-2.2077106453235293	6.568009759310294	-8.944972505485294
O	-4.77183167532353	9.174510899310295	-7.757622075485294
O	-6.72515121532353	10.412026759310294	-9.458570255485295
O	-7.55084809532353	7.3500890193102935	-11.566340115485295
O	-8.52212146532353	1.7146431193102938	-11.615383615485294
O	-4.97329860532353	-2.115640890689706	-11.901096315485294
O	-7.2998702953235295	-3.685586860689706	-9.370817605485295
O	-1.8085547853235293	-10.100655090689706	3.975946944514706
O	-3.7788548253235295	-9.214717480689705	0.8730597195147058
O	-4.168506955323529	-5.633700110689706	-0.4471489434852942
O	-7.554753815323529	-4.270860880689707	-1.5310545854852942
O	-7.398330655323529	-1.8193870706897062	-4.472474825485294
O	-10.08733604532353	0.0021285423102938017	-6.507002265485294
O	-9.15623962532353	3.6435499693102935	-6.075577415485294
O	-12.56486298532353	-7.3889182806897065	-1.2422818654852943
O	-6.38741863532353	-7.356827790689707	4.704808944514705
O	-4.84440216532353	-4.048534180689707	3.8289338445147054
O	-6.64773723532353	-1.1076948806897062	2.321855794514706
O	-4.27018791532353	-0.06378289968970619	-0.44792982248529417
O	-4.4119672053235295	2.906950879310294	-2.777304885485294
O	-5.10234882532353	5.652864629310294	-0.2039378524852942
O	-2.9641434953235293	8.499843989310294	1.1142660345147057
O	-1.8074746753235296	9.103837009310295	-2.4421142254852946
O	-3.0932374653235293	12.624763809310295	-2.803516605485294
O	-6.83561161532353	12.474098309310294	-2.184792875485294
O	-13.28711788532353	-6.975146280689707	4.410640364514705
O	-4.27458826532353	-2.4369544206897062	7.702857184514706
O	-4.411416255323529	1.0479155673102938	6.261412564514705
O	-1.1418392473235293	1.3694265883102938	4.435954734514706
O	0.8024436446764706	4.594753369310293	4.5608629945147054
O	-1.5106241383235295	6.485015189310293	6.998392714514706
O	-0.9253269543235294	8.878937459310295	8.651700024514705
O	-6.01754024532353	10.457405839310294	10.170448584514705
O	-5.30253660532353	7.563264419310293	12.555410684514706
O	-9.45709483532353	5.517763349310294	10.528524084514705
O	-0.9947386093235294	1.8403730193102938	10.495768284514705
O	2.416349194676471	2.887617939310294	9.156717554514705
O	3.775623384676471	6.158058049310293	7.923295654514706
