85

O	-0.6870005625647059	1.4556856425588234	-0.05473238658823423
O	-0.5384773002647059	0.2322555585588233	0.6824946694117658
O	-1.0676219112647058	-0.03823127944117666	1.8651601564117657
O	-0.7105578014647058	-1.1596572014411766	2.5509640164117657
O	0.16025409473529417	-0.7591751414411767	0.09007177841176575
O	-1.779584351264706	0.8221714027588234	2.4150302264117656
O	0.35645100873529423	-2.014408451441177	0.7673020964117657
O	0.07068371273529417	-2.1283825314411766	2.092900246411766
O	0.2757067287352942	-3.213878171441177	2.6579680664117658
O	0.7492716087352941	-1.0740465814411766	-1.2194687975882343
O	0.8096642987352941	-2.5341042014411768	-1.4049598735882343
O	1.0618653987352942	-3.0089138014411767	-0.030466079588234246
O	0.3362711987352941	2.4284072085588235	0.5209669704117658
O	-0.22810875126470587	3.7608728785588235	0.33766742141176576
O	0.02566482473529419	4.395512558558823	-0.6872492445882342
O	-1.511517252264706	4.0188307085588235	0.6154231134117658
O	1.5982157687352943	2.4101954485588233	-0.18403346718823424
O	1.1925271587352944	5.349124698558823	-11.248640883588234
O	-0.46737533026470585	2.0717880085588236	-10.289610683588235
O	-0.2497837262647059	-1.5662387914411768	-11.354290783588233
O	1.540990848735294	-3.0706039014411766	-8.378451023588234
O	4.250663218735294	-5.731596661441177	-8.709097343588233
O	6.772875568735294	-1.3619015114411765	-9.138939473588234
O	-2.389753741264706	4.083545558558823	-14.640491583588235
O	-4.575261631264706	5.753416768558823	-12.015726383588234
O	-8.226393321264705	5.496672818558824	-13.054769883588234
O	-9.633864851264706	4.064542898558823	-9.807238093588234
O	-6.632124361264706	1.8674946385588234	-9.053720053588235
O	-6.282508041264706	3.4749752685588233	-5.609317963588234
O	-3.4585756712647058	5.128089518558824	-3.6782786335882345
O	-5.157708551264706	8.054842378558824	-2.012402483588234
O	-7.749943341264706	8.654152458558823	0.6888686834117658
O	-6.513148431264706	7.505946368558823	-6.048077603588234
O	-3.212712731264706	8.974192768558822	-7.193689713588234
O	5.622080268735294	7.751739888558824	-9.070112503588234
O	4.504445058735294	4.678343578558824	-7.123159853588234
O	4.849553828735294	2.9331197685588233	-3.7422175635882344
O	3.062052808735294	5.9263910185588236	-2.2238760835882343
O	3.510014038735294	6.337952018558823	1.5255625664117656
O	4.436512288735294	9.743853278558824	2.976663106411766
O	1.7445675087352939	10.566822378558822	5.528211916411766
O	0.7079234987352941	13.673034168558825	7.418981986411766
O	12.393202718735294	3.661563868558823	-0.20306744658823422
O	9.686815718735295	0.3985138665588233	4.952353226411766
O	7.181753068735294	-0.5064458114411767	7.6351146564117665
O	4.015084308735294	-2.5357508314411765	8.173397826411765
O	4.851333228735294	-6.247921731441177	8.445608256411766
O	-6.641432051264706	-7.992810821441176	7.7259343464117665
O	-5.118073091264706	-5.359254551441176	5.482737836411766
O	-5.802310561264706	-3.737843971441177	2.1476175364117656
O	-9.102304591264707	-1.9648536514411767	2.4219740464117656
O	-8.022140311264705	1.5773181705588233	1.5224982264117657
O	-4.402227611264705	2.6174786585588237	2.031075366411766
O	-1.9045158512647058	3.942183418558823	4.565285486411766
O	-1.7042897742647058	0.5231003235588234	6.2447418864117665
O	-5.416947401264706	0.38073855555882335	6.959929996411766
O	-5.2571113312647055	3.9769288285588233	8.212675076411767
O	-2.415384191264706	3.1253099085588234	10.587282816411767
O	-10.842749581264705	-9.423580131441177	6.4633150664117665
O	-9.919810801264706	-6.591677031441177	4.1048705464117665
O	-8.932675741264706	-7.085959901441177	0.47588227241176584
O	-9.000218591264707	-4.824845101441177	-2.5811813835882345
O	-5.438955781264706	-5.442413941441177	-3.763437893588234
O	-2.159585721264706	-6.963344581441176	-2.665212863588234
O	-2.5575940512647057	-9.897060531441177	-5.031928483588234
O	-5.846411531264706	-10.649497731441176	-3.2405536835882343
O	-4.262198761264706	-10.546951831441177	0.20309519141176577
O	-1.446292609264706	-12.799216831441175	-0.9870209435882342
O	-1.838834961264706	-10.484560931441177	5.869349466411766
O	-0.6001037502647059	-7.1877372614411765	7.286765546411766
O	1.2517432087352942	-5.402602951441176	4.540923826411766
O	4.278245568735294	-3.1893238714411765	3.911322566411766
O	7.5662994087352935	-4.972866741441177	4.470525486411766
O	9.147740758735294	-4.409176521441177	1.0411232964117656
O	6.126628188735294	-6.000054541441177	-0.6294029395882342
O	6.167486078735294	-8.772672991441176	1.9793670264117655
O	9.181652198735295	-9.415492631441175	-2.645943433588234
O	7.970772188735294	-3.9508040414411765	11.413600916411767
O	5.129237088735294	-2.3317322514411765	13.364403116411767
O	6.294825988735294	1.0978307345588234	12.206339316411766
O	7.690951678735294	5.059878378558824	7.011873076411766
O	8.949796748735293	5.711345198558823	3.507803006411766
O	7.626081118735295	6.024031538558823	-0.04215604858823424
O	7.977933178735293	9.357374718558823	-1.7435844135882343
O	7.499533838735294	10.873158168558824	-5.171476443588234
