64

O	-2.443430359234884	-3.022456882148837	-0.19890698925581357
O	-2.397038799234884	-1.778811762148837	-0.7435756202558135
O	-2.176601979234884	-0.7481115511488371	-0.0406241112558135
O	-2.721613179234884	-1.5702375621488371	-2.0426799102558135
O	-2.999474649234884	-2.648213302148837	-2.7768209802558133
O	-3.296802769234884	-2.421667062148837	-3.990202260255814
O	-2.962078399234884	-3.9202136921488373	-2.2721375302558133
O	-2.8099006092348837	-4.106321532148836	-0.9252273202558134
O	-3.201151069234884	-6.959380622148837	1.9873682297441866
O	-2.6077856192348836	-6.259679662148836	3.0232688897441866
O	-2.185357479234884	-4.886645612148837	2.7009689997441866
O	-2.940761239234884	-4.146015032148837	1.8463616597441865
O	-0.720485152234884	-4.572388582148837	2.6185059697441866
O	-0.40494937123488395	-4.078811812148837	3.8559362797441867
O	-0.703375578234884	-3.599860382148837	1.4698809997441866
O	-0.21874982823488398	-2.4788471221488373	2.1083880297441864
O	-2.159506799234884	-3.236571092148837	1.1852013447441865
O	1.9723935807651163	-2.637516342148837	4.298094639744186
O	1.051008450765116	-4.011585742148837	4.556042099744186
O	0.9489613407651161	-4.105872002148836	6.0760423797441865
O	2.075295060765116	-5.2892913821488365	4.196252069744187
O	5.9602672107651165	2.838884147851163	8.139933219744186
O	5.868689790765116	2.506688897851163	4.349587279744187
O	6.134941490765116	6.276720157851163	4.047982579744186
O	3.4115904507651162	6.781577377851163	6.670012099744186
O	1.0892825307651162	4.292962177851163	5.070123859744186
O	1.7474458907651162	4.887405837851163	1.3378732077441864
O	3.3544550007651157	8.185868727851163	0.5368818887441864
O	-4.6293466592348835	3.6042014278511627	9.821119259744187
O	-6.840097609234884	-0.12184643524883707	16.204545519744187
O	-9.352268409234885	-1.040317780148837	13.501429219744185
O	-10.232069379234884	-0.09729700264883707	9.928864909744187
O	-7.429562319234884	-1.0379352571488372	7.574352059744186
O	-9.340590489234884	-2.777341952148837	4.728829419744186
O	-7.295892319234884	-1.668920412148837	1.6886194697441865
O	-4.540459439234883	0.9194641288511629	1.4091223697441866
O	-2.813281709234884	2.729708277851163	-1.4128911502558135
O	-1.264553762234884	6.244838837851163	-1.3770779902558135
O	2.025505560765116	-12.029066942148837	-4.077179700255814
O	3.2263746007651157	-14.080347342148837	-1.1013281402558135
O	9.119361990765116	-7.0685466921488365	-5.364074050255814
O	9.589349670765117	-4.390833672148837	-7.992388070255814
O	-2.065406939234884	6.660581797851163	-6.911343980255814
O	-5.190983659234884	6.585112507851163	-4.803257070255814
O	-6.766822759234884	3.352834347851163	-3.6038778802558133
O	-8.728196779234885	3.423126467851163	-0.3645630702558135
O	-11.194332329234884	0.5775583438511629	0.16035609974418646
O	-13.439053429234884	0.23112371585116293	3.1896915697441863
O	-10.360934289234883	5.715037297851163	-6.272002390255814
O	-7.801160479234884	7.725523737851163	-8.224985870255814
O	3.041337160765116	0.20738466485116294	-8.615527980255814
O	4.605824880765116	-2.923077742148837	-7.1373642002558135
O	6.483190990765116	-2.689904562148837	-3.8454804802558136
O	8.647388330765116	-5.011731662148836	-1.7836495802558137
O	12.091402070765117	-3.664703852148837	-0.8826750002558135
O	14.725246770765116	-4.631918792148837	1.6330494097441866
O	10.356831370765116	0.11936417485116294	-0.03449962625581354
O	8.909923290765116	-1.5762453721488372	3.0412088097441865
O	5.606777320765116	-2.931919112148837	1.6495160097441866
O	3.106092790765116	-1.972171032148837	-1.0810678202558135
O	2.193814660765116	-5.1642351321488364	-2.9716891102558134
O	-0.03297234323488396	-4.176790512148837	-5.814796610255814
O	-0.777617362134884	-1.846093922148837	-8.688946110255815
O	-1.199491362234884	-2.964721872148837	-12.322432380255814
