97

O	2.42067883081039	-0.7026677717792209	-5.73342097705974
O	1.87232538081039	-1.523294341779221	-4.282071817059741
O	2.27560354081039	-0.6297030717792209	-2.835048877059741
O	1.5976042608103902	0.6473353562207791	-2.8029723170597407
O	0.5758339908103899	1.449381752220779	-2.5080623970597404
O	2.1291290708103903	1.454634434220779	-0.8499728700597406
O	2.82208776081039	2.559098618220779	-0.4861016150597406
O	2.63922116081039	1.619792598220779	-2.3380347070597405
O	3.8943847608103903	1.1901017183207792	-2.176361807059741
O	0.76853172081039	1.217519807820779	-1.0510470470597406
O	-0.27305954518961006	0.3447601582207791	-0.8114035690597406
O	-1.56014266018961	0.5939049282207791	-1.2504873370597407
O	-2.35035702918961	-0.37801168177922095	-0.8172505300597406
O	-1.7581369941896101	-0.8554029017792211	0.2455668599402594
O	-2.37779256918961	-1.5799393117792209	1.2024120629402595
O	-3.70118614918961	-1.982696491779221	1.3035884729402594
O	-1.57200057018961	-2.004159681779221	2.144471912940259
O	-0.35061942018961	-1.498272211779221	2.147624062940259
O	0.28577836081039	-0.9369247517792207	1.1210129629402594
O	-0.42386835418961	-0.6893504817792209	0.028943782940259344
O	4.55586890081039	9.079337068220779	-4.643684977059741
O	5.72920456081039	5.429112648220779	-4.400918077059741
O	4.29440296081039	3.918992328220779	-7.64147409705974
O	4.13931744081039	5.190564028220779	-11.238852697059741
O	0.32373065081039	4.974216468220779	-11.266656297059741
O	0.30525579081039	7.238660568220779	-8.21590057705974
O	10.21150711081039	6.645701508220779	-4.833966677059741
O	9.46721341081039	2.9873997782207793	-5.3346454370597405
O	7.85902251081039	0.8059483982207791	-2.681170547059741
O	8.75622355081039	0.35863930822077905	1.0119296829402593
O	10.51895411081039	2.2464992082207793	3.8028907129402594
O	10.951852710810389	6.01502405822078	0.3766325729402594
O	3.16467263081039	12.245178128220779	0.4787711029402594
O	0.4101235108103899	11.11205905822078	-1.9533842170597406
O	-0.90068958758961	7.7458748482207795	-3.077514787059741
O	-2.96086404918961	4.755717888220779	-1.8484947970597405
O	-3.5483305491896098	3.185930528220779	1.5477885329402592
O	-5.53025079918961	0.520857806220779	3.4416404229402593
O	-8.35630227918961	2.0854792902207793	5.332173812940259
O	-8.731381649189611	1.082160750220779	8.97015300294026
O	-9.10232973918961	10.63018155822078	1.777037152940259
O	-6.86158836918961	10.07096859822078	4.783998992940259
O	6.5613512308103905	-3.011925121779221	12.472724402940258
O	3.6553380208103903	2.165350215220779	7.8147142429402585
O	5.51578851081039	-1.1162298017792212	7.5208166129402585
O	7.33906922081039	-3.184528221779221	4.867317042940259
O	4.43140044081039	-5.609121341779221	4.527194892940259
O	1.25275143081039	-5.524222771779221	2.429089272940259
O	-1.58269579118961	-5.995838071779221	4.9796883729402595
O	-3.95892440918961	-8.75439937177922	3.7520928129402593
O	-4.14255480918961	-6.88022050177922	10.26631160294026
O	-1.9772690591896098	-3.6370231717792203	13.80359280294026
O	-4.83299998918961	3.7400373182207787	7.627542292940259
O	-1.81723622118961	1.557466640220779	6.77857893294026
O	0.48578536081039003	1.585063977220779	3.6759868729402596
O	4.29643330081039	1.3544658102207792	3.2571212129402594
O	6.2279222808103905	4.757856178220779	2.8882168829402595
O	4.61417481081039	7.492117398220779	5.015134312940259
O	9.83312271081039	6.627477938220779	6.415462212940259
O	9.19914461081039	9.966354968220779	4.681976712940259
O	0.40105176081038996	12.60247362822078	4.148035372940259
O	-2.66350150918961	12.881123928220779	1.946305622940259
O	-3.57157230918961	9.467016318220779	0.5533548829402594
O	-6.74106194918961	7.8371867582207795	-0.7272246350597407
O	-8.27386644918961	4.482670058220779	0.22965023594025935
O	-7.77941193918961	1.5694927342207792	-2.1934082370597405
O	-8.71145561918961	-1.3617079117792208	0.1294412969402594
O	-9.468574979189611	-2.067077061779221	3.7726143329402593
O	-6.48312416918961	-4.30394364177922	4.480331582940259
O	-8.53266748918961	-7.48908464177922	4.850531252940259
O	-9.416495469189611	-9.290315571779221	-0.10740754705974065
O	-7.05355922918961	-6.30743146177922	-0.016469704059740575
O	-4.92966941918961	-7.524486491779221	-2.9505046370597405
O	-7.98885673918961	-7.8670186717792205	-5.217353427059741
O	-9.43325546918961	-4.58528234177922	-4.0712271970597405
O	-6.04050299918961	-2.993021741779221	-4.6065925770597405
O	-5.95470015918961	-4.3249454917792205	-8.177776567059741
O	-9.361590599189611	-2.8329074917792205	-8.910238637059742
O	-9.21383129918961	0.49545901922077906	-7.068629767059741
O	-5.56770216918961	1.565552346220779	-7.224471547059741
O	-6.63034559918961	3.8366106982207793	-10.049355027059741
O	-9.397186689189612	5.61090437822078	-8.13850834705974
O	-7.22018084918961	6.066441878220779	-5.078002707059741
O	-4.6176674991896105	7.695642438220779	-7.338109097059741
O	10.38128751081039	-8.380378441779222	7.59238440294026
O	9.40518161081039	-7.316389171779221	4.077517012940259
O	6.33813373081039	-9.09366357177922	2.731269552940259
O	4.53551076081039	-8.39568236177922	-0.5534170494597406
O	3.83503186081039	-12.046447071779221	-1.3657367130597406
O	0.19675680081039004	-11.11738807177922	-1.7331009270597404
O	1.32444674081039	-9.91846797177922	-5.1803138470597405
O	3.7256861308103897	-12.74496437177922	-5.99646671705974
O	7.05406767081039	-11.26120147177922	-4.910777687059741
O	9.42391011081039	-13.560584671779221	-3.040352567059741
O	9.21236841081039	-13.250484871779221	0.7557434829402593
O	10.336212010810389	-5.36897980177922	-2.1269100570597406
O	9.084921010810389	-4.56590570177922	-5.644738107059741
