20

O	7.347767540354468	10.043455931831655	2.7094491089807304
O	7.468111855332014	10.184695850675302	1.32992572407717
O	6.284958956932077	10.287572215134327	0.5836751765587707
O	5.081291133322925	10.011730303777227	1.1488477606834304
O	4.947358479277995	10.00874418507007	2.5263406796834733
O	3.6628056626761154	9.979666887975876	3.0610094725330854
O	3.505268830735253	10.014257872291715	4.385054090707505
O	4.629179499762289	9.87455418545618	5.1133236077822195
O	5.953552740187386	10.000275624519867	4.6656640015065305
O	6.0972088792986865	10.054481600727323	3.3171268342615243
O	8.888058264661653	9.943047367558464	3.3762202909246244
O	9.627163565445933	11.185399437434135	2.844832216824273
O	8.943134066774984	10.194919005119006	4.743586941182885
O	10.049702855648066	8.804958747666362	2.969285414563827
O	10.862182294681471	8.508820239888433	4.089588459500224
O	12.080195764583234	9.35758840363772	3.968139413828737
O	11.441356072882563	7.101754549330909	4.178807494323694
O	11.950190784810168	6.855359040818696	2.828410897883165
O	12.101146434104948	8.04175379419799	2.0593360718506757
O	10.890403532568653	8.950988867931908	1.8849509947609693
