29

O	30.612915664557576	0.6553572514225895	7.789498441806705
O	29.844368807166365	1.5627197377294768	8.573529444681576
O	28.66491174330528	2.3136826061122857	8.173908666978267
O	27.544345738706376	2.791647626319155	8.858251573927538
O	28.244882717389636	1.3029139900372735	7.241669363836575
O	28.946996040785987	0.13402030471518467	6.769477435756574
O	30.25383162738968	0.6529841262060737	6.421727329336382
O	30.851164527823478	-0.5314387751175447	5.328321805867701
O	31.33937542261915	-1.5854871820269139	6.237165320145842
O	32.065405353913285	-0.22963091627728027	4.608217373376063
O	29.664250282006837	-1.2635280311246009	4.307080679439878
O	29.012891301399076	-0.4843593836531317	3.5058838772217396
O	29.738089221468275	-0.07387287264976039	2.403835308224635
O	28.119640349987613	-1.4701103623512608	2.843270938966331
O	28.421890419407895	0.689140317116075	4.1059195035238405
O	27.264796192760926	0.8688793114557296	3.6598954354765154
O	29.178219653549327	1.8337884973355458	4.206242292327081
O	28.46862725952021	3.0527209442649945	4.458689476938858
O	27.067403855744153	2.999073232817903	4.618315542871143
O	29.195042854529056	3.8236682810343714	5.308609393748528
O	28.440120871280822	4.914851240156062	5.811841149483158
O	27.152011530673427	5.199276410398536	5.281292756638763
O	26.55500330627492	6.511761644370415	5.367076155039335
O	26.588901197090777	7.655849683624342	5.619702782143399
O	26.410979069522888	4.024811021431842	5.20948443945245
O	25.08114684412808	4.006246944019245	5.749434423239835
O	25.042576823474725	3.571454673137983	7.035803879905128
O	24.125375597105688	3.265738742979617	5.112119283947268
O	24.622472143378605	5.261791347859671	5.790955197415293
