15

O	20.449992290319535	61.931941453249856	28.76272351793842
O	21.04574525591123	61.60211565875243	27.5735512930409
O	20.437727548512427	61.182328508915546	26.579321714218445
O	22.39919027339814	61.64418712591043	27.401178368691713
O	23.152217575007647	61.9099985793184	28.457906746964913
O	24.377906400571028	61.7836845131206	28.411397080208676
O	22.652340786192184	62.10627834437471	29.74403616366589
O	23.431015706060702	62.31134194658718	30.818573348566357
O	21.27561632951655	62.12690736958341	29.822762870661442
O	19.04214738815158	62.10683724649906	28.87309627701639
O	18.77868159667143	63.52162989757177	28.34023138130006
O	18.961287604223326	64.50673308804181	29.356491296364343
O	17.34283102303544	63.46572180542141	28.04967141163529
O	16.535703219253136	63.71509476935599	28.946137614535925
O	16.86278589655892	62.44855852012608	27.320417512151124
