77

O	6.741477628659575	2.7698018918723406	0.38015571838297874
O	6.094956868659574	3.8922579018723407	-0.18817147861702127
O	4.639834298659575	3.9350693418723406	-0.4481062263170213
O	3.7197710086595746	2.7540698918723403	-0.4597156157170213
O	4.710432038659574	1.8009425218723405	0.03973898438297874
O	6.128501908659574	1.7090086618723408	-0.4248413435470213
O	2.4384372186595744	2.8683402618723406	0.09454962738297873
O	1.1911078866595743	2.3526937518723408	-0.09068915361702129
O	0.34147273965957425	2.9910979118723406	-0.8864452276170213
O	-0.35619945534042574	1.9149305418723408	-1.5595522136170212
O	-0.39716373834042573	0.6722951605723406	-1.0824113906170212
O	-1.0407109113404258	1.2620857658723406	-0.00034093461702128236
O	-0.05286698734042575	2.1801150118723407	0.47101942938297875
O	-0.7192870903404257	-0.5588440681276593	-1.6091879936170213
O	-1.963083801340426	-0.6267805981276594	-1.8983738536170214
O	0.20112394585957427	-1.5962516281276593	-1.9584057836170212
O	-0.45089265934042577	-2.7798792981276597	-2.282415693617021
O	0.30831449905957425	-3.73550046812766	-2.946971323617021
O	1.6360007186595742	-3.6041764981276594	-2.5168983636170212
O	2.2180590186595746	-2.4651007381276595	-2.739844063617021
O	1.5454761886595743	-1.4960409281276594	-1.9663592736170212
O	2.3715448186595744	-0.5058850181276594	-1.5157051636170213
O	3.7685223586595744	-0.44484825812765927	-1.8015463136170213
O	-1.7847287713404258	-2.8459201681276594	-2.595011253617021
O	-0.22712077134042571	-4.935192808127659	-3.1899967036170214
O	-2.4669654313404257	1.3742935138723407	-0.02541303261702127
O	8.438342468659574	2.8810659118723403	0.2950552583829787
O	9.227499158659574	1.4159896478723406	-0.28150258161702124
O	8.894098448659573	3.3488119118723407	1.6324863963829785
O	8.781007918659574	3.9854718018723405	-0.6434312106170212
O	4.727162648659575	7.761667681872341	-9.79411523361702
O	5.090500408659574	4.006753071872341	-9.90626308361702
O	5.258184058659574	2.436096911872341	-6.465820793617021
O	6.074298928659575	-1.1459175881276593	-7.562427593617021
O	5.094346358659575	-4.330953508127659	-9.414724453617021
O	3.3996819686595745	-7.4970476481276584	-8.14373169361702
O	3.0008547786595745	-10.86484170812766	-9.872975403617021
O	1.4379712886595741	-2.7542232781276597	-11.18360542361702
O	0.9450057726595742	-0.1809493671276594	-8.44436983361702
O	0.9814481776595743	3.5827297318723406	-8.848456743617021
O	0.5705105136595743	6.570939761872341	-6.591426523617021
O	-2.0776271913404254	8.657604321872341	-8.32482621361702
O	-4.137460211340426	10.89977859187234	-3.444120303617021
O	-4.444368931340425	7.139949681872341	-3.8243701036170212
O	-2.6976367213404258	3.9773309118723406	-4.676760473617021
O	-3.8073176613404254	2.287438001872341	-7.889847933617021
O	-3.4383473013404253	-1.4158989081276596	-8.57072661361702
O	-7.571927261340425	-2.4222662581276593	6.680976596382979
O	-6.386601491340426	-0.22246812812765937	3.795996406382979
O	-10.581891641340427	-0.020748134127659412	-1.0818324346170214
O	-8.210594051340426	2.2107045518723405	-5.9335461136170204
O	-6.878329181340425	2.1694704118723407	-2.3991095536170213
O	-6.360453701340425	4.815388981872341	0.22894532138297868
O	-2.7357700413404253	5.879886961872341	0.15749242638297872
O	-0.26017305334042573	5.241987881872341	2.9726581563829786
O	3.3012369986595744	6.572011221872341	3.0332314263829785
O	5.400354638659574	3.6407271118723403	4.3480354963829795
O	5.324066008659575	-0.1530113631276594	5.0062348863829795
O	6.482018338659574	-2.1777524281276595	7.932457256382978
O	9.406460248659574	-3.5923935881276594	5.946633696382979
O	10.923829858659573	-0.16206811712765934	5.421516556382979
O	1.1067400356595742	-2.8681129581276594	15.850071976382978
O	5.868551928659574	-6.868218928127659	6.314194056382979
O	5.4183792486595745	-5.3066798681276595	2.9301089963829785
O	1.6360893486595742	-5.849207608127659	3.112633436382979
O	1.4201906886595743	-3.89345814812766	6.377254316382979
O	1.1814676626595744	-0.10513605812765936	5.835941196382979
O	1.7966135586595742	2.5252902618723407	8.475425686382978
O	1.1256981246595743	6.207366331872341	8.939142876382979
O	-1.793115531340426	3.1541829018723404	12.79103387638298
O	-0.8864611613404259	0.006593212872340604	10.86528077638298
O	-3.1342076413404256	-1.5088373581276593	8.195319046382979
O	-3.5864861913404256	-4.769367518127659	6.301945556382979
O	-3.0854704213404256	-4.317416878127659	2.5850173263829785
O	-3.4239410613404258	-6.366867768127659	-0.5944596976170213
O	-5.908837151340426	-8.93788877812766	0.5346020863829788
O	-5.564643991340426	-12.012166608127659	-1.6646332136170214
