85

O	0.8311132608385965	2.806101205896491	-2.5848619181403514
O	-0.15574552166140343	2.357326855896491	-1.701538493140351
O	-0.1557999540614034	1.276494829733491	-0.9088188672403511
O	0.040501348838596574	0.2602852758964911	-1.558838789140351
O	-0.1542877725614034	1.3358888636964912	0.5473124518596488
O	-0.8041607861614035	2.538859445896491	0.9096338918596489
O	-0.9243138861614033	3.662811225896491	0.08361129285964897
O	-1.0348337391614033	2.757963845896491	2.228567301859649
O	-0.6120104141614033	1.761737079896491	3.1169562818596486
O	-1.3780318441614035	1.6346293388964912	4.251671071859649
O	0.3002575658385966	0.7422045928964911	2.744639981859649
O	0.8041566548385966	-0.538663884103509	3.791196501859649
O	0.6199077988385966	0.527648654896491	1.395819481859649
O	1.8101161658385965	-0.1904566841035089	0.8205422318596489
O	2.4361584058385968	-0.11628405410350884	-0.5036779891403511
O	3.9790703658385964	-0.4554247141035088	-0.546328999140351
O	4.859178465838596	-1.0522749741035091	-0.041093634140351054
O	4.698048675838597	0.728841817896491	-0.47652748814035106
O	4.171391075838597	1.983291668896491	-0.37645234714035103
O	4.240039195838596	2.623427525896491	-1.705840558140351
O	3.9751949058385967	1.9305393698964912	-2.914746948140351
O	3.6609844558385967	2.728789885896491	-3.947012438140351
O	3.0479979958385965	0.926909936896491	-2.5771705781403513
O	3.131085735838597	-0.22758090410350884	-3.258075868140351
O	4.117512885838596	-1.240958544103509	-3.1974085981403513
O	2.408018975838597	1.7775898318964911	-1.576378574140351
O	2.8584908658385966	2.120060404896491	-0.2447107091403511
O	2.0389336158385967	2.6609106258964914	0.7153063218596489
O	1.6580681358385965	4.097375825896491	10.698478091859648
O	-1.0483571561614033	4.259379205896491	8.07469527185965
O	3.1996259258385966	7.329159005896491	7.255292301859649
O	2.5154425558385967	4.592680855896491	4.686076161859649
O	0.37286959883859655	6.572243225896491	2.598622981859649
O	2.7881666758385966	9.654576245896491	2.807704511859649
O	5.414286395838596	7.3060596058964915	1.4988872818596488
O	3.042614255838597	6.228244015896491	-1.344494539140351
O	2.5642675458385966	9.79354251589649	-2.1560002881403513
O	6.271160255838597	10.65859713589649	-2.153557978140351
O	6.726213425838596	7.699696515896491	-4.578506228140351
O	4.319572225838597	8.937497895896492	-7.2190770781403515
O	-4.329244144161404	11.887276295896491	2.573132631859649
O	-7.523192064161404	6.093993445896491	5.2041018118596485
O	-4.141817914161404	8.62399903589649	-0.3411299031403511
O	-3.6154030741614034	9.645753415896491	-3.988036378140351
O	-0.1797519939614034	8.030854255896491	-4.0171104281403505
O	1.4893721858385964	5.395143525896492	-6.3100107681403514
O	-1.4036877741614036	2.8979399758964908	-6.078685008140351
O	-0.4934336341614034	-0.9108780341035088	-6.264322348140351
O	-1.2436572941614035	-3.2387910941035085	-9.24236758814035
O	-2.781483704161403	-6.682366304103509	-8.65231996814035
O	2.0183678358385966	-5.666823504103508	-6.221407628140351
O	-0.8642903161614035	-6.21954338410351	-3.800582158140351
O	-0.07999584946140342	-9.92598840410351	-3.734235748140351
O	3.685136845838597	-9.22177470410351	-3.475832878140351
O	3.7641104858385965	-6.375458544103509	-1.0159599131403512
O	0.9337863358385965	-7.33666083410351	1.237773091859649
O	1.6311714058385964	-10.930708404103509	2.113101911859649
O	3.332938765838597	-13.52394970410351	-0.09087518714035103
O	6.910393165838596	-12.183481304103509	-0.04050041114035108
O	8.920643725838596	-12.444670604103509	3.135969221859649
O	9.606907235838598	-9.27794590410351	5.014402041859649
O	6.5351133958385965	-1.821593034103509	14.74420449185965
O	7.125415815838596	0.8938607058964911	12.08906839185965
O	10.886890335838597	0.8319900678964911	12.600152891859649
O	9.177897925838597	-2.1504226141035088	8.399690011859649
O	5.901081865838596	-3.910245874103509	9.14419819185965
O	3.809254285838597	-1.0312425941035088	10.495424691859649
O	0.9423929058385965	-1.850987814103509	8.117271491859649
O	-0.07087132286140341	-4.76080008410351	10.30775089185965
O	-9.825389124161402	-4.163238354103509	2.735528801859649
O	-6.966238994161404	-2.481757104103509	0.8039885318596489
O	-8.583205574161402	-0.942132674103509	-2.341698758140351
O	-5.946294214161404	0.23767012589649106	-4.823143408140352
O	-2.0719033941614033	1.981576681896491	-9.88406011814035
O	-1.6447972241614035	3.774379925896491	-13.203470308140352
O	-0.36590478216140343	0.4405693738964911	-14.476855808140352
O	-3.4364310241614033	-1.7300302141035089	-13.684122508140351
O	-9.524400304161404	-5.310401734103509	-3.5874133681403513
O	-7.133506524161404	-7.14936650410351	-1.222781881140351
O	-7.6286977441614034	-10.299408804103509	-4.215715918140351
O	-4.167672914161404	5.70117095589649	-5.020927258140351
O	-4.866379144161404	3.342138065896491	-2.049240708140351
O	-7.7434486041614035	3.116376865896491	0.45785594185964884
O	-7.042888044161404	1.197910930796491	3.6292174818596488
O	-10.820817664161403	0.31901242889649106	4.811853341859649
