66

O	-0.16335968321153915	-4.344677665865385	-3.5672657021961536
O	-1.3393689932115391	-3.6465904658653843	-3.5097608621961536
O	0.7071899467884608	-3.032908955865384	-4.168663192196154
O	-0.21154582321153925	-1.5639809958653845	-3.7467215121961535
O	-1.2335689968425392	-2.2728568558653848	-3.165011932196154
O	0.12405076678846072	-0.1813384298653844	-4.134088702196154
O	-0.29216747721153924	0.5515164023346155	-5.204069552196153
O	-2.219708125211539	-1.4674219158653845	-2.534151602196154
O	-1.9268488692115393	-0.35080550386538445	-1.753478202196154
O	-2.405349993211539	0.9552098071346156	-2.147527192196154
O	-2.0895776422115393	2.0768318041346157	-1.448782039196154
O	0.5934893267884607	0.5729803048346156	-3.2113299721961535
O	-2.690789173211539	1.0924329681346157	-3.3371482221961535
O	-2.8987473332115394	-4.742677555865384	-3.163498042196154
O	7.936067986788461	-9.918391245865385	1.9052738378038465
O	7.56108813678846	-7.135067685865384	-0.6716822099961537
O	4.596731376788461	-8.774214985865385	-2.4035408521961537
O	4.168630146788461	-12.512590345865386	-2.9961524721961537
O	0.3655863867884608	-12.216569945865384	-2.7350698421961535
O	0.1968361167884607	-10.039315045865385	0.38090611680384623
O	5.034537266788461	-8.612931285865384	7.325981287803846
O	2.7145327467884606	-6.817346455865384	9.745000137803846
O	2.3962202567884607	-3.3776229958653845	7.580617737803847
O	4.098079396788461	-3.271908945865384	4.162124457803847
O	6.560253896788461	-0.5314600958653843	3.2891465578038463
O	2.854602336788461	6.508351104134615	5.883994537803846
O	0.39697571678846066	6.772528144134616	2.9760615478038464
O	2.704537986788461	6.298792914134616	0.001513910803846219
O	5.824949276788461	7.937321864134615	-1.4082754981961538
O	9.14993628678846	6.116127234134615	-1.5941262631961537
O	8.88128118678846	6.1630915041346155	-5.382923912196154
O	5.597035176788461	5.8604130341346155	-7.228029052196153
O	5.074569716788461	5.2969354741346155	-10.939413462196153
O	8.83341488678846	4.978259504134615	-11.407695862196153
O	9.278858786788462	2.1923871241346156	-8.838675382196154
O	10.58330968678846	1.9836123641346155	-5.273364272196154
O	7.53700220678846	1.1153508961346157	-3.185177452196154
O	9.25548228678846	1.5782705801346155	0.14805253680384622
O	3.543921216788461	11.201444254134616	5.793425617803846
O	-2.4798251632115393	9.594549704134616	-2.182546342196154
O	-2.0303313772115392	7.580197844134616	-5.428340892196154
O	-1.5491470022115392	3.867448684134615	-5.341579722196154
O	-4.938511893211539	2.1073593441346157	-5.886132812196154
O	-6.268853193211539	5.678992344134615	-5.6858352821961535
O	-8.116476003211538	7.9844914441346155	-3.3211620621961537
O	-7.30096639321154	11.260388854134616	-1.5177421481961537
O	1.566286856788461	1.3964102511346157	6.065256937803847
O	1.6038635467884608	2.1613005241346155	2.4239551478038464
O	3.4242910167884606	-0.08563872986538446	-0.08028574819615375
O	1.588392996788461	-3.3782502458653845	0.6415004878038463
O	-0.17947019321153923	-2.214227245865384	3.7388706478038465
O	-3.7512013932115393	-3.072124185865384	2.7231800878038466
O	-5.292281643211539	-0.7099390258653844	0.1655211678038463
O	-4.54506248321154	2.815988334134616	1.2433504178038461
O	-3.755995133211539	1.6300403941346155	4.7827317478038465
O	-7.045573403211539	-0.26989914186538444	4.948747897803846
O	-8.949072713211539	2.809603474134615	3.807234427803847
O	-10.391618963211538	-8.288013695865384	7.138980587803847
O	-5.338007713211539	-8.758247945865385	7.438210507803847
O	-6.207536823211539	-9.712088445865385	3.8620074478038466
O	-7.3958950532115395	-7.370126995865385	1.1255980778038461
O	-8.02151186321154	-4.256705665865384	3.2250158778038465
O	-9.30913942321154	-1.6000050658653844	0.8171180578038463
O	-8.24847915321154	-2.534772405865384	-2.7059751621961534
O	-10.72895939321154	-0.8391095558653845	-5.035593092196153
O	-11.483358513211538	3.406910194134616	-2.090058012196154
