24

O	55.397154390855135	75.93143491713052	-5.984323573890289
O	55.235373426950716	76.98850019516063	-4.95283737804499
O	54.21270476298973	77.92846732092322	-4.913697887128144
O	54.12534966550503	78.90171711655246	-3.8993629220542436
O	54.97419529543227	78.90002284180888	-2.840072346008613
O	55.83905148837668	77.81611077781201	-2.780314271629337
O	56.119320758894034	77.03706624955333	-3.89948758240098
O	57.09069359051528	75.89747325742215	-3.84230567763428
O	58.360267823638374	76.49388765432825	-3.4830607566584737
O	59.623425461087635	76.71116995035473	-4.252541354026835
O	60.0499630937245	75.38268732104443	-4.791063992417904
O	59.00413406536948	74.78546292454241	-5.60298495562828
O	59.32285401519907	73.74124652983829	-6.620403869319356
O	60.47172075955896	74.4332096292041	-7.362545552394463
O	59.70137190073131	75.30851117089549	-8.327541502617041
O	59.51146451118257	76.59409652341714	-8.160134844309944
O	58.63937630807331	77.18878304277774	-7.094583369484727
O	57.23436294073119	76.72663100040309	-7.540079567910032
O	54.268620827831	75.57560816692694	-6.486522551988262
O	53.15136216803186	77.75669644585751	-5.788915454189632
O	54.87047971640062	79.67061625865665	-1.7063799444547088
O	57.038176406913976	77.77859928321564	-1.5387716627508188
O	58.830517091125294	75.83441449282554	-2.5536853561680104
O	56.6151041919521	75.78664777785723	-6.68650827689739
