99

O	2.9554235696542377	0.28777797920339043	-2.5006557984745763
O	1.6716444396542374	0.3814939412033904	-3.045730848474576
O	0.5619230486542375	-0.4512460367966096	-2.829647658474576
O	0.6541034826542373	-1.1206104697966097	-1.6659308924745764
O	1.9890565296542373	-1.3138228247966097	-1.2716852664745764
O	3.0757053396542378	-0.4494621537966096	-1.4192851394745762
O	-0.7656500503457626	-0.009043249796609643	-3.0243323284745762
O	-1.2763729173457625	-0.3601856817966096	-1.7760690704745763
O	-0.25278091444576256	-0.4357991167966096	-0.8839844484745762
O	-0.9207111583457626	1.5369407122033905	-3.1769069084745762
O	-2.6049290603457624	0.15980816220339045	-1.3126780504745763
O	-0.22575122934576258	-1.0004298367966096	0.3367877715254237
O	4.114674169654237	-1.2819876927966096	-1.1293890734745762
O	5.277401119654237	-1.0564565237966095	-0.5607738544745763
O	6.061209229654237	-0.2286622357966096	-1.3218224594745762
O	5.364014719654237	-0.3430719847966096	0.5915703715254237
O	5.768566799654237	-2.2898199777966095	-0.2542795144745763
O	-0.7286594273457626	-2.4336679477966094	-0.04063025747457627
O	-1.5171221503457626	-2.4123473977966094	-1.1561027704745763
O	-1.3978596303457627	-3.1912831877966097	-2.262218808474576
O	-0.15144621834576258	-3.69794536779661	-2.4033005584745766
O	0.38610949765423747	-4.25271033779661	-1.2052952074745762
O	0.31164934265423744	-3.2901534477966097	-0.18653384647457627
O	1.5195315496542374	-3.26794870779661	0.9929017215254237
O	-2.7404383903457625	-3.5929254477966097	-2.436699218474576
O	-3.1198610803457623	-3.96745871779661	-3.6830863384745762
O	-4.159630650345763	-5.076244637796609	-3.803643978474576
O	-3.3582443903457624	-2.6893242777966098	-4.331711318474577
O	-3.5043859703457625	-2.7750688777966097	-5.543237018474576
O	-3.4810445503457625	-1.4514569237966097	-3.7588631684745764
O	-0.6971728453457626	1.8833735922033905	-4.323130848474577
O	-0.25358501284576257	3.16126289220339	-4.251376538474576
O	0.29991456765423746	3.4396728522033904	-3.0806973884745763
O	-0.2791087228457626	2.4532693022033905	-2.365441338474576
O	1.4884871696542374	3.8549724522033904	-2.486650448474576
O	2.0794809696542376	3.3141844522033903	-1.3778127934745763
O	1.3142485696542374	2.3545781622033903	-0.7138516444745763
O	-0.005469834345762592	2.3050189322033905	-1.0081426857075764
O	3.4820395196542377	3.2612264722033903	-1.4444899824745763
O	4.317484799654237	2.53084507220339	-0.5964358254745763
O	-6.996444230345763	7.25043304220339	-2.066532768474576
O	-6.743169100345763	9.22957123220339	1.1801244815254237
O	-6.755157690345763	7.937816612203391	4.749891031525424
O	-10.297096530345764	9.288747732203392	5.092019981525423
O	-11.663908500345762	7.26635329220339	2.1684270015254237
O	-9.673990450345762	4.28769241220339	3.3642833615254237
O	-10.974685900345763	4.400143972203391	6.909991531525424
O	2.4452007596542376	-12.133741367796608	-8.994041308474577
O	1.5501423696542374	-10.355584447796609	-5.791148018474576
O	5.147891909654237	-9.081599867796609	-5.367080448474576
O	5.107024889654237	-7.64916389779661	-8.875595698474577
O	1.8333758496542372	-5.89578632779661	-8.082224198474576
O	3.3152030296542376	-4.0479320777966095	-5.129821798474577
O	6.235541629654237	-3.2040726077966095	-7.5554723284745755
O	3.854410539654238	-1.7303537877966098	-9.913266648474577
O	1.9602706896542375	0.2237347382033904	-7.191627588474576
O	5.232360179654237	1.4780322822033902	-5.740681138474576
O	6.400725969654237	2.98806106220339	-8.920694388474576
O	3.0583243396542374	4.68445015220339	-9.219350688474577
O	3.3028141596542375	5.90874731220339	-5.609093118474576
O	6.739172609654237	7.22127746220339	-6.335331698474576
O	5.210853799654237	9.239609822203391	-9.170338588474577
O	2.4377876796542375	10.526005832203392	-6.916180668474576
O	4.830966979654237	11.43529353220339	-4.132936588474577
O	10.056001199654236	4.901187422203391	0.27434810152542366
O	9.783029099654238	6.19398003220339	3.8483775015254236
O	6.733944799654237	8.085769742203391	2.527103051525424
O	5.369128449654237	5.03082553220339	0.8935027915254237
O	5.221173549654237	2.9999707522033905	4.081359621525424
O	3.6731114296542375	5.94973393220339	5.859881421525424
O	0.8364953396542374	6.288756442203391	3.345206711525424
O	0.5610575186542375	2.4952144722033904	3.2471054115254234
O	-0.3947363889457626	2.41089899220339	6.959288301525424
O	-3.4117603303457624	4.49930713220339	6.015307971525424
O	-4.633820690345763	1.5558926622033904	3.9798651915254237
O	-3.9219335903457626	-1.0333857987966095	6.625523261525423
O	-5.502173830345763	-2.3130947677966094	9.789021571525423
O	-5.8707649303457625	-7.77789657779661	9.831098871525423
O	-5.1286570903457624	-6.7149380377966095	6.269950131525423
O	-4.783318400345763	-3.99886281779661	3.7242748615254233
O	-6.910946690345763	-2.38564376779661	1.0646334915254236
O	-6.153706700345763	-2.8621548377966097	-2.417169588474576
O	-7.241330650345763	-2.2102121277966096	-6.135965348474576
O	-7.866667210345763	1.3678557822033905	-5.334531988474577
O	-9.921664870345763	0.25779013520339045	-2.318758348474576
O	-12.101214000345763	-2.3321556477966094	-4.064384728474576
O	-10.343172240345762	-5.265695787796609	-2.430584468474576
O	-8.880463640345763	-6.228775867796609	0.9188750715254237
O	-6.074437580345763	-8.799451447796608	1.2135670815254236
O	-5.6211032503457625	-10.315364247796609	4.644016271525423
O	-2.3871268603457625	-10.096899917796609	6.605674251525423
O	4.697719559654237	-7.35142566779661	3.931240091525424
O	7.220052099654237	-5.44868919779661	8.754299311525424
O	4.863230759654237	-2.83851652779661	7.321461511525424
O	1.7845862596542375	-4.230891877796609	9.138783071525424
O	11.549813699654237	-0.7429369457966096	7.265461221525424
O	13.253630999654238	0.5013574222033904	4.118911271525423
O	13.092706799654238	-4.13758640779661	2.7096031515254237
O	12.895702399654237	-4.72169828779661	-10.709665808474577
