21

O	11.999197343908719	51.72917217392915	58.849112444323836
O	11.282890034648503	52.22520147908588	57.88773309130959
O	9.984246628505465	51.93197242427803	58.23087877298733
O	11.84039176914836	53.45668227152673	57.377586801286
O	13.300814322036125	53.43074490126054	57.1547113419945
O	13.894175934108816	53.41425648056831	58.411731075433856
O	13.26016757156702	52.47243634558622	59.14300276999783
O	13.241472407831637	52.49073404178973	60.49882772332312
O	12.018832434275637	51.691539132292526	60.762339097913326
O	12.437115170453254	50.471696558206766	60.33962833145456
O	12.501568530025757	50.373084906005545	58.9242536529424
O	13.843752511017136	49.97385982742441	58.37879544592971
O	14.757950961858086	50.6647050076171	59.337915226850775
O	14.023468345918486	50.45218511406184	60.594861676153414
O	11.122563159053914	52.68965327565332	61.05817809503739
O	11.58095454857602	53.89442367778634	61.57841441950622
O	11.74712980019432	54.15390271859169	62.97439183859924
O	11.319349044739104	53.19505931406078	63.852973873419586
O	12.098931522100962	52.87343190993758	64.91050932470455
O	10.173894699576092	52.58820080091246	63.32278060280078
O	10.080919964191514	52.320468012314976	61.92910842724247
