31

O	49.843480325924844	11.746329016876011	3.3917617521951637
O	50.113906368667955	12.726078227851383	1.968253496316124
O	50.273411736384624	11.647220644331203	1.1281303727669076
O	50.6730950494958	10.488305408403086	1.723626076804515
O	50.33891634106816	10.11888446501332	2.9965479869405796
O	49.804903226184166	14.090930701447224	1.5144813546424958
O	48.63966362937593	14.753199047062742	1.9338057768847614
O	50.6899722031149	14.860371249295795	1.0881669403874827
O	49.491396171158044	8.832416410921022	2.961138794708824
O	48.12266430804992	8.968924408159392	2.687304097757532
O	47.50904818464123	8.751401989927963	1.4200584598343982
O	48.296413392453154	7.7939483644901255	0.7506951792391741
O	49.13688780742047	6.921681366166209	1.4879919787271145
O	49.9790122149798	7.68437818193847	2.3542935724565437
O	51.815265971415265	9.272719138514379	0.6840319759794298
O	49.61447403804894	11.710229785172931	-0.13136620594510617
O	49.97581533243809	10.574336560895874	-0.9669972423240152
O	48.99566650696189	10.476536923161873	-2.074655492190538
O	48.256143118116505	9.29206653862526	-2.131182459383413
O	48.54459116484888	11.580245459252911	-2.494696380686615
O	47.23107532353815	10.047311263578024	0.7426169015534887
O	46.503743614223964	10.942865734846475	1.6972142751887374
O	45.080935238013	10.388434741310455	1.5354872596543911
O	44.79132238508026	10.275382706241869	0.039615947260625894
O	45.871391535835556	11.021876432067634	-0.7790825907437933
O	45.65055026239783	12.335977271300745	0.05390481951140913
O	46.708637734723716	12.31708786337863	1.0706453317882243
O	44.5480798325699	8.905704385898336	-0.2975050094036389
O	43.483850775055906	10.967173853680928	-0.37499606416086895
O	44.41737756529215	12.521704230549638	0.980121774699608
O	45.199086274883676	13.233420352474328	-0.9516918718003042
