28

O	45.51005104970115	14.339116213588326	1.6116586570499836
O	45.517774438076835	15.301630504680384	3.0553300648820088
O	46.44624081631432	14.612751072364627	3.7721383228458736
O	46.54743630225159	13.292758159278492	3.4809479474714786
O	46.21049723287353	12.917793095173426	2.185137935068802
O	45.14369195399933	16.72771622415867	3.101282605305083
O	46.06912952892691	17.44698285308013	2.6134496927087465
O	44.77005783642779	17.197510178968837	4.350804266434727
O	46.529844694029244	11.637281748878364	1.6295931279774045
O	47.84502465235634	11.248740090275408	1.788368784861552
O	48.360237033023886	10.25874982890522	0.9770355046914254
O	47.47779991528629	9.588970197271273	0.17366244629161898
O	46.24258632201786	10.16910216740009	-0.13671818338671216
O	45.68691634994572	10.793434085792876	0.9919710940378135
O	46.5818683350125	11.892723304235625	4.735831413731737
O	47.188723787754704	15.30886852291215	4.675132125251784
O	47.43365237780067	16.65948556966302	4.8160499676867055
O	47.35217105511387	17.31017615515067	6.121889560538045
O	46.31347929410372	17.252372416397474	7.020516588537317
O	48.13175532977585	18.302059762069145	6.278263146032213
O	49.27212985980462	9.395549038998928	1.698835678216378
O	48.63912082282559	8.728948183602451	2.7740795068037265
O	48.05571375736596	7.418424129776033	2.4837453697633514
O	47.60705865579586	6.670413077930425	3.5613347164438895
O	47.60375178732551	5.280794528933207	3.4922942911106283
O	47.47287516587073	4.78367071918755	2.2328391092138453
O	48.026313584426156	5.501063811574778	1.2056488445445304
O	47.83053400633032	6.882071358776857	1.247626635892475
