100

O	-0.3903300639457626	-2.458824023491527	2.8448210877966096
O	-1.7439439499457627	-2.3821069234915266	2.79838418779661
O	-2.2204505799457626	-3.1074039634915267	1.7404915477966096
O	-1.6577382799457627	-2.8448529634915265	0.5336263397966098
O	-0.3171008439457626	-2.6401505034915265	0.49362639479660986
O	0.34779723005423746	-2.1785411834915265	-1.0183658412033902
O	1.1730942700542375	-0.9806454434915265	-0.3855037728033902
O	1.2122813100542373	0.2674392195084734	-0.7852235572033902
O	0.002797438054237378	0.47239999750847345	-0.07634578720339019
O	-0.8772714409457626	-0.09475039249152661	0.7568295877966098
O	-2.3990660499457626	0.6820605165084734	0.6116166267966098
O	-3.0002123999457626	0.008221374508473378	-0.5280165722033902
O	-1.9752722099457625	2.0217032765084735	0.2430701537966098
O	-3.270095159945763	0.5112124145084734	2.10246298779661
O	-2.669953829945763	0.8588504271084735	3.28784158779661
O	-3.0919236399457626	0.26644479950847344	4.4408133777966095
O	-4.274700119945763	-0.4622641034915266	4.380521047796609
O	-4.754796859945762	-0.9610182634915266	3.20713681779661
O	-4.076791229945763	-0.5378868634915265	2.09110828779661
O	-4.549196969945762	-1.2750628734915268	0.6518988577966098
O	-0.8223711609457626	0.3461880935084734	2.0319384677966097
O	0.31422375605423736	1.1876327635084734	2.1661308577966096
O	0.5257123300542373	2.1666486265084735	1.2608774077966098
O	1.790124220054237	2.6040432265084736	1.0474498677966098
O	2.804191840054237	1.9447465465084735	1.6281817077966099
O	2.6037911100542375	0.7635189584084734	2.2016331777966096
O	1.3412170300542372	0.3847765585084734	2.4887162977966097
O	-0.8637826949457625	-0.0671506104915266	-1.1229638572033902
O	-0.2602647299457626	0.6252691595084734	-2.20482277220339
O	0.9966903600542375	-0.1792898214915266	-2.20416825220339
O	2.4444524900542373	-1.3999833434915265	-0.11541990120339018
O	3.2602372400542374	-0.7643025134915266	-1.1502667392033903
O	3.4735489600542375	-1.3944056834915268	-2.3239490822033906
O	4.366223490054238	-0.7869046434915267	-3.13536132220339
O	4.939330500054238	0.4050176705084734	-2.82854215220339
O	4.268835630054237	1.1704511145084735	-1.9301925322033902
O	3.4904180700542375	0.5610473485084735	-1.0431518462033902
O	-0.6017888338457626	-2.024964953491527	-2.1276278122033903
O	1.3314150500542374	-2.9745715934915267	-1.7334152022033902
O	0.3414548300542374	-2.6943285034915267	1.6756185677966098
O	-2.3649743299457624	-2.982533713491527	-1.0039195232033902
O	5.514310960054238	11.885486916508475	-2.42811422220339
O	3.489801710054237	9.100995026508475	-4.04643017220339
O	-0.1635360049457626	9.810818376508474	-4.908547622203391
O	-1.6783012999457627	6.681568046508473	-3.53019753220339
O	-5.303144149945762	5.725340616508474	-4.04676058220339
O	-5.126941379945762	2.6247208365084735	-2.17450362220339
O	-4.050884299945762	4.717915736508473	0.9422736877966098
O	-6.338714559945762	5.324542766508474	3.5589939277966094
O	-3.9366461399457626	7.730980796508473	5.241634417796609
O	-1.0623542099457626	10.063375486508475	4.4604754177966095
O	2.263216920054237	8.856630766508474	5.80161306779661
O	-0.1833234559457626	1.3912780355084733	13.97406043779661
O	-0.4952107199457626	0.9363207815084734	10.25551143779661
O	0.21148571405423744	-2.2856741834915266	8.35378260779661
O	0.14949897105423737	-4.551795023491526	5.28430186779661
O	2.582532290054237	-6.4886706734915265	3.1258803877966095
O	5.518362640054238	-6.932129553491527	5.400371597796609
O	3.678387010054237	-6.291554703491527	8.65285075779661
O	2.9690051300542373	-3.1560186434915267	10.70460143779661
O	4.9094929100542375	-0.03194298949152652	11.69990883779661
O	-0.7302310377457626	13.195467616508473	8.61971394779661
O	1.0472779800542376	10.143028706508474	10.00862263779661
O	7.738127970054237	4.433049816508474	6.033646797796609
O	9.815615590054238	3.445698996508473	2.95350549779661
O	8.314307440054236	6.239512186508473	0.7955696877966099
O	6.271932740054238	9.390761756508475	1.3388290977966097
O	2.5968570100542374	8.757064406508475	0.7436685377966099
O	-0.3181652629457626	10.978438616508475	0.06057338279660979
O	-3.4573551499457627	9.061607526508475	0.9227151077966098
O	-11.934051409945763	2.9800272365084735	-0.6802662712033902
O	-12.034996909945763	2.5912321265084732	-4.493024862203391
O	-8.871260379945763	-2.2581231334915266	-4.50305306220339
O	-7.609670019945762	0.12454923350847347	-7.17536255220339
O	-4.284365129945763	1.0756681255084735	-5.94051233220339
O	-2.0460349899457624	3.5891923965084733	-7.70125999220339
O	0.5786205600542375	3.3132194365084735	-5.13674885220339
O	0.9899797400542375	-0.4263639134915266	-6.17563306220339
O	3.3258886100542373	-1.2569075934915266	-8.79299770220339
O	1.9418825600542373	-4.736518173491526	-9.093122222203391
O	-1.3581412839457627	-6.547092143491526	-8.782566782203391
O	-1.6014043309457626	-8.891312513491526	-5.800556442203391
O	7.522228770054238	-7.043018933491527	-3.2245320922033898
O	8.162550510054237	-4.277308513491526	-0.7496135602033902
O	5.481731220054238	-3.257621973491527	1.70305301779661
O	4.847285280054238	-0.7597354134915265	4.51618408779661
O	6.325173460054238	-3.210834763491527	6.82559878779661
O	9.030284860054238	-4.736304253491527	4.63672661779661
O	0.9633468400542374	-11.867607983491526	-8.02097851220339
O	-0.4524995939457626	-14.197717083491526	-5.373230132203391
O	0.4456179000542374	-13.913589683491526	-1.6944128322033902
O	-0.6796691533457626	-12.821091183491525	1.8055477777966098
O	-2.1323357799457625	-9.558824983491526	0.8375327277966098
O	-4.402901439945762	-7.677127933491527	3.2922386677966102
O	-6.901330969945763	-7.294150813491526	0.3611082697966098
O	-7.039614269945762	-8.029142993491526	-3.36777772220339
O	-5.178499479945763	-5.294688783491527	-5.20231951220339
O	-5.123504479945762	-4.073659743491526	-8.74868327220339
O	-1.8155705699457627	-2.2821017234915266	-9.20959125220339
O	-0.3741454339457626	-0.019862371491526587	-11.91029776220339
