79

O	2.1465456632380953	-0.8088851420158738	-4.051315179530159
O	2.687912703238095	-0.3203376230158739	-3.0192891895301592
O	0.8664171132380951	-0.38727835801587396	-4.332840789530159
O	0.09346896423809503	0.42237832998412606	-3.568534489530159
O	0.44439594323809506	0.1834059389841261	-2.269603149530159
O	1.765349733238095	-0.10834176701587395	-2.099068919530159
O	-3.479592006761905	0.3621374659841261	-1.0533910215301592
O	-4.571660116761905	0.5990969779841261	-0.28356602553015914
O	-5.116923756761905	-0.43947175201587396	0.3986829204698409
O	-4.239830396761905	-1.3914765820158739	0.8243319604698408
O	-2.936979826761905	-1.401763162015874	0.43540033046984095
O	4.075735243238095	-0.32848589301587394	-2.966095649530159
O	-0.5609465027619049	0.1974236459841261	-1.154323405530159
O	-2.698090906761905	-0.682931642015874	-0.6936759354301592
O	-1.480990018761905	-0.9497557320158738	-1.4096181255301592
O	0.6153567832380951	0.09376160798412608	-5.515160649530158
O	-4.104528886761905	11.214572327984127	4.825714930469841
O	-6.816414876761905	8.533539307984126	5.2005361504698415
O	-9.405706866761905	10.640717127984127	3.408600220469841
O	-4.947355216761904	11.846261027984127	0.08437525046984085
O	-5.699844226761905	8.334105177984126	-1.2376383535301592
O	-3.1188249067619047	6.890910887984126	1.194583620469841
O	-1.3371296647619049	7.944576677984126	4.4068694204698415
O	-1.367280337761905	6.294797787984126	7.864002050469842
O	0.056942697238095086	1.4692302799841261	9.21400005046984
O	0.6319116032380951	2.523221867984126	5.609932080469841
O	4.4048003432380956	3.3087824179841263	5.339161740469841
O	5.2648991932380955	1.878450367984126	1.9266620604698406
O	8.589133343238094	2.552876087984126	0.21883523146984085
O	7.501182763238096	0.28518096198412607	-2.560352629530159
O	7.150233463238096	-2.9267081120158736	-0.5847945711301592
O	9.180204613238095	-4.683380872015874	2.2400410804698407
O	6.756191103238096	-6.517211862015874	4.543423100469841
O	5.432269383238095	-5.229577712015874	7.861286450469842
O	2.026583553238095	-6.905509772015874	8.05096929046984
O	-0.9861551397619049	-6.285914212015874	10.22905056046984
O	-4.6419134467619045	-7.119361042015874	10.62324536046984
O	-12.172793086761905	-7.696289982015874	9.29095136046984
O	2.177565563238095	-10.750085472015874	-0.8999239685301592
O	0.5210690432380951	-9.365736162015873	-4.009678439530159
O	0.741644493238095	-5.641803932015874	-4.627423619530159
O	0.985155943238095	-3.781637652015874	-7.875125809530159
O	-2.6746227967619047	-2.8400824320158735	-7.627151389530159
O	-3.8788133367619047	-6.453042612015874	-7.3956893595301585
O	-4.436916376761905	-6.361785752015874	-3.645633509530159
O	-3.0401758767619054	-9.176344062015874	-1.527443731530159
O	-2.659123176761905	-10.603042072015873	1.9490684004698409
O	-6.624345246761905	-10.175439272015874	3.177185640469841
O	-8.113229586761905	-9.302210292015873	-0.18782181253015917
O	-11.409113286761906	-7.433033062015874	-0.31103347453015917
O	-9.883249876761905	-3.9610854420158743	-0.8131182165301591
O	-8.199066826761905	-4.280415092015875	2.597832320469841
O	-11.394930386761905	-5.351810362015875	4.300872790469842
O	-13.258087086761906	-2.468632152015874	2.6323810104698406
O	-10.835648306761906	0.1571583709841261	3.9612591904698404
O	-5.508213416761905	1.0205054259841262	7.248773090469841
O	-4.525891626761905	-1.572928962015874	9.82874046046984
O	-1.591054110761905	-2.892315082015874	7.814140340469842
O	1.540902343238095	-1.9837569120158738	5.929158140469841
O	5.068484103238095	-1.0693815520158738	7.045652200469841
O	7.469156793238095	-1.7774806520158737	4.147307330469841
O	11.687779913238094	-8.098760822015873	-1.4756590125301592
O	10.466549613238094	-9.430649732015873	1.8607444204698407
O	11.068673013238094	5.1466460579841256	-11.88935813953016
O	10.572517013238095	4.382278407984126	-8.225450229530159
O	9.933604013238094	6.618939017984126	-5.227620889530159
O	6.853153283238095	4.738043127984126	-3.8630963995301593
O	5.017119803238096	6.3107513779841256	-0.8516429325301591
O	2.6554647432380953	3.4044522579841265	-1.080188632530159
O	1.2906869132380951	4.3660788279841265	-4.514350119530159
O	-1.192521975761905	7.215680027984126	-4.586710809530159
O	-0.6873531397619049	8.505304187984127	-8.078887019530159
O	2.5690858632380946	7.019902517984126	-13.20187493953016
O	-9.265474986761905	3.080183467984126	-16.52996023953016
O	7.228756213238095	4.464093107984126	-13.77625733953016
O	6.041503373238095	5.240646827984126	-10.23892796953016
O	6.7160778732380955	8.514896807984126	-8.40323527953016
O	3.842147533238095	7.9157947179841255	-5.976660759530159
O	2.3343285732380954	10.316836257984127	-3.4026457495301594
