83

O	-0.08824270085416641	-1.265756580541666	1.987965519104167
O	0.20072915914583356	-1.8064966105416658	-1.8413649808958332
O	-1.4617219080541664	-0.6752795005416657	-1.3957775508958332
O	-0.6148568968541664	-0.9516808205416657	-2.3698102208958334
O	-2.4024970308541667	0.3478418654583344	-1.4462782608958331
O	-2.7687601008541662	0.8011485814583343	-0.1300460755958332
O	-3.4728992708541666	2.0389564294583344	-0.1732657677958332
O	-3.1194543308541665	0.07090846645833437	0.8114421111041668
O	-3.505928770854166	2.709756379458334	1.0273831991041669
O	-4.4921376708541665	3.659664939458334	1.035841829104167
O	-5.057878480854166	3.2236011094583343	-1.3192819208958333
O	-4.561478530854167	1.9537821494583345	-1.0408039308958332
O	0.2325135591458336	-1.7955215005416658	-0.45636644689583317
O	-0.9843725178541665	-1.2331549505416657	-0.20943052139583318
O	-1.1699942508541663	-1.5398086505416657	1.1908125791041668
O	0.8166342491458334	-1.438483080541666	0.8887736991041668
O	-6.600264050854166	4.106023439458334	0.041623477104166806
O	-7.089896920854167	4.1383846494583345	1.3746031491041668
O	-6.2236342408541665	5.295659329458335	1.9268458591041668
O	-6.666126370854166	6.426569779458335	1.1631297691041669
O	-6.547653010854167	6.321320869458335	-0.24189452349583318
O	-7.070367850854167	5.082514399458335	-0.8805220118958332
O	-8.087671570854166	6.598177449458334	1.4711168891041668
O	-5.236564190854166	3.844263479458334	-0.08562117319583319
O	-0.5816699258541664	-0.6169012405416657	3.154022059104167
O	-1.4109845410541664	0.3523938494583344	3.302828029104167
O	1.7090467691458335	-2.261718090541666	3.1606905091041666
O	1.5216567391458335	-3.636892800541666	3.2252653191041665
O	1.3244905991458338	-1.4423897105416659	4.172079029104166
O	0.6917583091458335	-4.026473470541665	4.285672129104166
O	1.1801638691458334	-2.0361122105416656	5.372782249104167
O	0.4246216991458336	-0.3325211005416656	4.161602979104167
O	1.2374774991458337	-3.383753620541666	5.408783569104167
O	-0.23961920085416644	1.6469856974583343	4.717020539104166
O	0.18914405914583354	0.39701486045833434	5.261421599104167
O	-12.680209200854167	-3.625974140541666	-0.37759237189583317
O	-10.916890690854167	-3.2919283805416657	2.945752879104167
O	-8.018382240854166	-0.9372334305416657	2.665114909104167
O	-7.049153050854167	-0.47093391054166556	6.290277499104167
O	-3.5088704508541664	-0.0018614465416656456	7.491268609104167
O	-2.9315672308541663	-3.595095490541666	8.508359189104167
O	-0.9452449778541664	-4.802271360541665	11.524767849104167
O	-4.754130450854166	-8.557728480541666	9.733386939104168
O	-6.920269650854166	-6.742483750541665	7.245278749104167
O	-5.437660580854166	-5.588521040541665	3.938953169104167
O	-7.703207920854166	-5.806637580541666	0.9398885191041668
O	-8.058806260854166	-4.533674280541665	-2.5478260108958333
O	-3.8864702508541664	-6.2817138305416655	-6.470312750895833
O	-3.3529609708541663	-5.867866080541665	-2.788169810895833
O	-3.8755097108541663	-8.666001360541665	-0.4501118568958332
O	-2.5696192908541664	-8.912326950541667	3.0150732991041664
O	6.533960689145834	-2.621431770541666	-4.025027720895833
O	6.357543589145833	-5.925232490541665	-5.9569454808958335
O	5.377460139145834	-9.371309530541666	-4.612791460895833
O	2.905049669145834	-11.074658830541667	-7.046919670895833
O	-0.35858588085416643	-10.680375130541666	-2.8277889008958335
O	1.3106655091458337	-7.442679460541666	-3.8479495608958336
O	0.9761643591458338	-4.861572910541665	-6.7030824908958335
O	-1.6692286918541663	-2.3085389205416655	-5.925030190895834
O	-0.46657091085416647	1.2458171014583344	-5.412716800895834
O	-3.4709276508541667	3.515252719458334	-6.066420340895833
O	-2.5850621308541664	6.430354989458334	-3.8808622508958335
O	-1.7428886688541665	4.647399189458334	-0.5897951438958332
O	0.9033231191458335	6.031416659458334	1.8300131891041669
O	3.524415569145834	8.635422359458333	1.1288584891041669
O	2.7440490791458334	10.467345819458334	4.405100789104167
O	-0.9048081338541664	11.202157069458334	3.687947349104167
O	0.03947836914583358	11.812004469458333	0.0458586721041668
O	2.2969568691458337	14.654031469458333	1.1641636291041668
O	-0.1993750708541664	16.178121969458335	3.625004159104167
O	4.2397129991458335	6.030837489458334	6.395812349104166
O	5.833999719145834	2.8589839794583343	4.877336779104167
O	6.219271969145834	4.1078978094583345	1.3152356091041668
O	3.5362930791458336	3.777554709458334	-1.2195331908958331
O	2.4288562191458336	6.070588959458335	-4.0727577908958335
O	1.1844110491458335	5.365952229458335	-7.633592650895833
O	0.14704655914583364	7.673978219458335	-10.470984350895833
O	6.871760759145834	6.204467729458335	-5.010220120895833
O	7.907853099145834	2.8144341794583343	-3.7720557808958333
O	9.412706699145833	1.5961038594583343	-0.5380896608958332
O	7.183116569145833	-1.0657408105416657	1.0059583791041669
O	6.576344789145834	-2.913469890541666	4.337521919104167
O	9.495959599145834	-5.372861720541665	4.129643439104167
