16

O	6.672468424881622	-12.613446665105997	3.857719638361946
O	7.758693670826709	-11.619180302216336	3.6928265882146736
O	7.452491513606882	-10.498286496013574	2.7446785148647557
O	6.550654525919941	-10.98583469460847	1.6526201755290333
O	5.312486431234165	-11.487016279725477	2.296288783018019
O	4.181549103863791	-11.826646196315059	1.3778640561041122
O	7.413646934011374	-11.05902767588871	5.878675104007853
O	8.475228192524346	-8.137864722252132	6.775513953065307
O	8.2542464636885	-11.175459713616814	4.957019492413174
O	8.54967124566074	-9.830316167079491	2.2693638423448093
O	6.38356575618932	-10.15214247567437	0.5752736141049617
O	5.573513544969204	-12.589127348507388	3.0681428827570763
O	7.998346743532454	-10.442999439562932	6.969911947707194
O	4.355930491458598	-13.144005499987525	0.9987582163975919
O	6.129681128261849	-12.224702910295454	5.526815796496685
O	7.704355265528576	-9.222505055407984	7.445702587182079
