67

O	-2.2524461510408162	-2.7191832341387756	1.6666045637816314
O	-0.9308993220408162	-2.7146854341387754	2.0270413137816314
O	-0.7101124202408162	-3.7560700341387756	3.0702537637816314
O	-1.127491390040816	-3.2549938541387755	4.290338443781631
O	0.7453828489591838	-4.030014704138775	3.1401317337816317
O	1.3718021289591837	-2.9241660641387757	3.9327051437816314
O	2.344660138959184	-3.5260743141387754	4.682032923781631
O	1.4227204889591836	-4.388479254138775	2.0097746437816313
O	1.2425480389591839	-3.6312960441387756	0.8986702697816313
O	1.0875608589591839	-4.462038234138776	-0.19237177021836865
O	0.12875453995918384	-2.7046065841387756	1.0557167317816314
O	0.05965451195918381	-1.8191879041387757	-0.06785244121836863
O	-0.4920754370408162	-2.2799464241387755	-1.2580211462183686
O	-1.1158528220408162	-3.3919024741387753	-1.1492043562183687
O	0.04064000095918374	-2.0690858041387754	-2.5728564462183683
O	1.357984078959184	-2.5713719941387754	-2.7981484462183683
O	-0.5662973400408162	-1.0079445941387757	-3.2179689062183683
O	0.015690838959183773	0.07103864666122442	-3.1331767662183685
O	-6.8437324310408165	4.267666655861224	0.12947686348163137
O	-8.361859841040816	1.8495027258612242	2.6065493837816316
O	-5.534698111040816	-0.6795422901387755	2.1092393937816314
O	-4.361565771040816	-1.7210188141387757	5.566455883781631
O	-4.4784183310408165	-5.245114034138775	7.079379393781631
O	-11.751777181040815	-1.6625471941387757	0.39472599178163137
O	-12.808848781040815	-2.9086764141387755	3.8491685037816317
O	-11.399609281040815	-6.4324224341387755	4.169852443781632
O	-12.071485881040816	-1.1144622941387756	-6.221886186218369
O	-9.108041931040816	-2.7851145241387756	-10.631389986218368
O	-6.315894361040816	-4.484223714138776	-8.624285776218368
O	-3.671286271040816	-6.828656944138776	-10.039052386218367
O	-1.278659087040816	-7.026951874138775	-7.181099366218369
O	-2.765144671040816	-10.232466954138776	-6.149391086218369
O	-5.578687871040817	0.16632766866122442	-11.838331486218369
O	-3.018283391040816	-1.2848405241387757	-9.465965376218367
O	-0.16899175404081623	-2.9403150741387756	-11.345734686218368
O	1.3401981689591838	-6.2725455941387755	-10.510648686218367
O	3.823821038959183	-1.5521869441387757	-7.980642166218369
O	7.192508718959184	-0.5188887611387756	-6.591272746218369
O	9.547491218959184	-5.600732764138775	-6.768746416218369
O	-0.9432030570408162	3.2290099858612247	-8.916481366218369
O	2.6234048589591836	3.1358642258612246	-7.485137806218368
O	4.085280878959184	2.9945227858612244	-4.002957796218369
O	7.583126838959184	4.329841525861225	-4.750686156218369
O	10.974971518959185	2.5664465658612245	-4.696562856218369
O	9.955224118959185	-0.09038801213877558	-2.1998328062183683
O	6.715606538959183	-1.1452519341387757	-0.5908800312183686
O	7.220112778959184	1.5220877558612242	2.0899299737816315
O	8.859137498959184	4.526267845861224	0.5405053217816314
O	0.9655792389591837	7.525133375861224	-5.757705006218369
O	-0.05675971704081617	5.022584235861225	-3.1071640362183683
O	1.896727038959184	6.141404635861225	-0.07871521221836862
O	2.231650278959184	3.5093661658612247	2.5847661437816316
O	2.188415098959184	5.741201675861225	5.648970143781631
O	0.8025580989591838	5.9296788658612245	8.343237433781631
O	-0.3489370230408162	2.3416102558612244	7.8325501237816315
O	1.0299628189591838	0.43024463686122444	10.826301913781633
O	-0.2494797870408162	-3.0243810641387756	9.915912973781632
O	3.2980264689591836	-4.460001344138775	10.020124633781633
O	4.243181808959184	-2.6667146341387755	13.226670913781632
O	-2.3665129010408164	7.751874215861225	1.8933044237816314
O	-2.749001371040816	4.2597845458612245	3.2736166737816315
O	-3.7390301810408166	4.901169535861224	6.910044393781631
O	-3.6398153210408166	2.8870797258612244	10.183338413781632
O	-4.870091681040816	8.431955785861225	11.230879313781632
O	10.756390518959185	-3.7742326841387754	10.975819013781631
O	10.760059618959184	-6.000356414138776	7.901617963781631
O	10.386380818959184	-3.0085921641387756	5.632131793781631
