77

O	0.6325618933114765	0.7031177358868849	-0.35915866014754133
O	1.7166773733114764	0.22549978288688485	0.0024791298524586836
O	2.668455933311477	1.2057467558868848	0.5528614388524588
O	2.0154440333114767	-0.9348848831131151	-0.7121144461475413
O	1.2299424433114765	-1.9983946341131151	-1.0888072191475413
O	2.2991721033114763	-2.952223854113115	-1.5378623111475411
O	2.005930953311476	-3.9984751341131153	-0.6963061161475413
O	0.03568376331147638	-2.680046724113115	-1.2477294391475413
O	-0.20735878468852353	-3.8412200441131152	-0.4728640679475413
O	-0.5389344876885236	-3.104384694113115	-2.5655179811475413
O	-0.17837411168852357	-4.377951114113115	-2.9535779811475416
O	-0.21455895668852354	-2.0228574341131154	-3.5396518211475416
O	-1.2432078826885236	-1.998695734113115	-4.599290331147541
O	-1.4977877476885235	-3.3636539841131152	-4.844484421147541
O	1.1926029033114764	-2.014303724113115	-3.6694669011475414
O	1.9702187933114763	-2.9816109941131153	-2.9746162811475414
O	-5.713356156688524	-0.8407265721131151	6.499147108852458
O	-6.0153612266885235	-4.531831404113115	5.453114858852459
O	-2.7113175366885236	-4.3537966841131155	3.5314924588524583
O	-3.299435926688523	-5.904302654113115	0.0990383278524587
O	-1.7367587776885234	-8.956259424113115	-1.6286125411475414
O	-4.093776706688524	-11.915451634113115	-1.9940210311475415
O	-6.472700636688523	-12.324717134113115	3.7046846388524584
O	-1.2902652966885235	-6.011548314113115	7.723960328852458
O	-2.2194295566885236	-8.471269424113116	4.972918228852459
O	0.8091163133114765	-9.062085354113115	2.8251007788524585
O	0.015722873311476482	-12.735327634113116	2.6462108488524585
O	1.4259162133114767	-4.143397214113115	11.668346848852458
O	3.076405393311477	-0.3527659221131152	12.980800748852458
O	6.174630023311477	-1.408263214113115	11.057816348852459
O	5.927529133311476	-1.4972651341131151	7.257072658852459
O	9.063454533311477	-1.2648351041131152	5.058515368852459
O	7.104760333311477	-1.1717251161131153	1.7669187788524585
O	8.106589583311477	-3.311296444113115	-1.2216279511475414
O	11.534389533311476	-4.513591944113115	-0.1378173111475413
O	15.175236833311478	-4.343557644113115	-1.3085702641475412
O	15.722280733311477	-0.08649941111311515	3.2331822788524587
O	2.891785013311477	3.9955055958868853	12.835350548852459
O	5.447648363311477	3.3551881658868847	10.090187548852459
O	5.124425713311477	2.844550325886885	6.354366058852459
O	8.187335213311476	4.0699768658868845	4.407262048852458
O	10.133349433311476	2.188148285886885	1.7759871188524587
O	9.645297633311477	5.274952285886885	-0.3948833771475413
O	5.872707363311477	5.522390325886885	0.08173164285245871
O	4.961671213311477	7.7532245458868845	-2.8540789611475414
O	7.387271253311477	8.486957875886885	-7.999867701147542
O	9.111607533311476	5.946456775886885	-5.870421931147542
O	2.3952946833114765	6.630834695886885	5.828985718852459
O	2.1799163933114762	7.887537665886885	2.1956910488524586
O	0.10140141331147645	6.807977265886885	-0.8086662591475413
O	0.3994706133114765	9.994953865886885	-2.8585912211475413
O	2.227457083311476	10.984559765886885	-6.026162111147541
O	2.168962133311476	7.430525345886885	-7.332431881147541
O	1.5903304433114764	3.9000635158868846	-5.957330111147542
O	-2.0224213646885234	4.470239435886885	-6.876151971147541
O	-3.1165526466885236	8.088422345886885	-6.748523671147542
O	-0.7856102016885236	9.501414845886885	7.484358058852459
O	-2.4197894166885234	8.632264165886886	4.162975798852458
O	-2.5656426266885237	5.074041195886885	2.8725385988524588
O	-5.024084506688523	5.334924885886885	-0.01106982514754129
O	-4.800508926688524	2.509801635886885	-2.501984401147541
O	-8.393778406688524	2.291676615886885	-3.4840561411475415
O	-10.436395106688524	0.11716582588688482	-3.7865830811475414
O	-7.511482266688524	-2.406659244113115	-3.4989294911475413
O	-7.571764276688524	-4.400849064113115	-6.740720591147541
O	-4.7405954266885235	-6.822852964113115	-5.955766751147541
O	-3.2615202566885237	-5.756836934113115	-9.243866111147542
O	-6.456530696688524	-5.885493824113115	-11.312388551147542
O	-8.224708256688524	2.934737055886885	2.6768831788524587
O	-6.423920766688523	-0.19812131421311516	1.3024426888524587
O	-9.520824046688523	-2.3396297841131153	0.24873361985245868
O	-10.182029196688523	-5.250720664113115	-2.1439308811475413
O	-9.636852436688523	-8.758099394113115	-0.9334975431475413
O	-15.196932266688524	-3.035909424113115	-0.09699187214754135
O	-2.8171772866885236	-1.3429919341131151	-15.782275951147541
O	0.7923266133114764	-0.6047668081131151	-14.948781051147542
O	-0.09276740468852351	1.9749535558868847	-12.33721375114754
