78

O	1.4261252955696428	1.7864868233589282	-2.9261090084107146
O	2.808960495569643	1.8448696033589278	-2.3570649084107145
O	2.750235535569643	3.203041543358928	-1.9483343884107145
O	2.659301555569643	3.8812709333589277	-3.1238380384107147
O	3.809770695569643	4.371256593358928	-3.825100928410715
O	2.608186865569643	3.4561847333589277	-0.6272489274107146
O	3.541523045569643	1.189086047358928	-1.4562306884107146
O	3.669155785569643	1.613260318358928	-0.09654943541071459
O	3.171426205569643	2.763124483358928	0.34540431658928544
O	3.2643816855696426	3.431710813358928	1.5139901515892855
O	1.0151047355696425	0.605600090458928	-2.980122738410715
O	1.522479185569643	-0.31248697664107195	-3.9871031484107147
O	1.2108211455696427	-1.7300379866410722	-3.5025764584107146
O	-0.31390588643035733	-1.6609204866410723	-3.521274008410715
O	-0.6407042572303573	-0.735603446641072	-2.4061202884107145
O	0.2441937725696427	0.10702844735892802	-1.8810186984107145
O	0.22380594956964273	0.864006392358928	-0.6613825034107146
O	0.8136265955696428	0.411860106358928	0.4416797615892854
O	0.2513155935696427	0.811787150358928	1.6124750515892854
O	0.4646026055696427	2.101659503358928	1.6001853715892855
O	-0.1660592894303573	2.743729003358928	0.5225709625892854
O	-0.22747156843035732	2.145287573358928	-0.7414170504107146
O	-0.7478083327303573	-9.309268946641073	6.762806101589286
O	-5.607669904430357	-6.188506476641072	4.633582481589285
O	-8.518151864430358	-4.4491112266410715	2.9482345915892854
O	-7.163655574430357	-1.9839600766410723	0.5245882295892854
O	-10.020059524430357	0.545396682358928	0.6938238115892854
O	-11.162628044430358	0.588546786358928	4.309838961589286
O	-12.047998944430358	3.969562293358928	5.772284991589285
O	-15.064893844430356	0.628372573258928	3.275976291589285
O	-4.291637734430357	-8.669741306641072	-0.03477391641071459
O	-0.9515245374303574	-8.634293326641071	1.6207769215892853
O	0.27558666556964273	-5.105906296641072	2.440319771589285
O	3.959541455569643	-5.961908416641072	2.0109393315892854
O	4.401879145569643	-9.346038146641071	0.2284394995892854
O	4.278329985569643	-9.682326446641072	-3.581177098410715
O	2.826817855569643	-12.609370446641071	-5.447770478410714
O	2.4496589955696426	-14.787654046641071	-0.8539877374107145
O	-3.325441234430357	-10.63318384664107	-10.406987378410713
O	-2.156335464430357	-7.125784766641072	-11.297607218410715
O	2.4426666355696427	-2.365646736641072	-11.775447218410715
O	7.102986915569643	0.027336783358927974	-10.879730118410714
O	7.952286335569642	-3.6862754066410726	-10.742435018410715
O	6.645433575569643	-9.362453546641072	-9.826855198410714
O	2.8891226455696426	-9.97814274664107	-9.874716868410715
O	0.6587428355696426	-8.569081646641072	-7.173293318410714
O	-2.310758764430357	-10.538939946641072	-5.845984328410714
O	4.750593105569643	11.024139953358928	-1.0008581494107145
O	0.9867550155696426	10.797787153358929	-0.7176976854107147
O	-1.5123592144303573	8.581041793358928	-2.479941598410715
O	-4.921964894430357	10.023396403358928	-1.8849501384107146
O	-7.640131194430357	7.439193683358928	-1.7990644984107145
O	-7.899765364430357	8.442609583358928	3.561535111589285
O	-4.442266644430357	8.248527413358929	2.0718721915892853
O	-1.3297711404303572	6.309751223358928	2.0188805015892854
O	1.800770665569643	7.805353933358928	3.063045621589285
O	4.943781575569643	6.560982073358928	1.4974237215892854
O	8.089086705569644	7.112382693358929	3.480958391589285
O	11.687556555569643	6.366745843358928	2.5444097715892853
O	-5.667557134430357	1.420278507358928	8.526034971589286
O	-2.919811744430357	-1.0174128866410719	7.4384159715892855
O	-0.2689486484303573	-3.2500468966410723	8.957454271589286
O	2.8239458155696426	-1.2614282066410718	9.894092581589286
O	5.523681685569643	-3.378511436641072	8.388599551589285
O	8.596361395569643	-1.9360787566410722	6.666931581589286
O	10.723165255569644	-3.3078264566410724	3.792437751589285
O	13.774004255569643	1.455414819358928	4.2081271115892855
O	10.324559955569644	1.780250223358928	2.667405021589285
O	7.2157738155696425	2.120381683358928	4.746003761589286
O	3.711495115569643	2.815290343358928	3.7005596215892855
O	1.0792289355696427	3.169372603358928	6.208518801589285
O	-2.530850994430357	3.8111089633589277	5.176115601589285
O	-4.182414534430357	6.445167263358928	7.447114621589286
O	-0.0930278474303573	13.747615353358928	-5.3557910484107145
O	-0.7151636320303573	10.242076043358928	-6.661303978410714
O	-4.346068174430357	10.022045173358928	-7.623312318410714
O	-4.1085057344303575	6.652393213358929	-9.463838828410715
O	-5.966642234430357	4.986377383358929	-6.550023378410715
