34

O	1.068267851010642	-8.506876805750334	-4.063302643690252
O	2.6600265094003483	-10.4656541313639	-4.5403818969823275
O	4.015561964580569	-12.14020928143692	-5.484245271388804
O	4.84172553718196	-13.891955383033896	-4.176717896159384
O	4.149896352428335	-13.380923871778274	-3.1257111930595567
O	3.201558968457349	-12.420773940178673	-3.3269928787753895
O	3.9038727419390935	-9.71590671045641	-4.229342011741076
O	6.06922814401646	-10.86891793704747	-3.8411931638037538
O	5.755178306380214	-10.480168407004541	-2.655910136390797
O	9.520222727279632	-5.576517927720751	-0.9206362440563147
O	9.0162522949819	-5.212256198641175	0.19887674769431252
O	9.659607621414702	-5.8632589734244265	1.2716493680637373
O	7.558715132861449	-4.979748576995425	0.22078320861334078
O	6.857340249028395	-3.8547844656020516	0.5588106208483494
O	5.468581112775837	-3.75337214584966	0.270401838071328
O	4.672463426284263	-4.811200947241237	-0.06545412752712876
O	3.325167601975173	-4.888105749639967	-0.5676272440112067
O	2.828614124475722	-5.921628321553955	-1.4607244870067158
O	1.520388621199889	-5.878554889441773	-1.7095925391828095
O	0.9616565886789192	-6.81166706124142	-2.5009802417232043
O	1.8160805573810896	-7.671496465722367	-3.136925178680017
O	1.6094942396320993	-9.753382142437113	-4.61465743690612
O	2.9657206587786824	-11.933650072695926	-4.5735977176307285
O	3.7670496095113313	-11.491102704766588	-6.6640289112185975
O	4.564621086686671	-13.387806869938395	-5.394416926490128
O	2.996078953435116	-11.50184199727623	-2.345708004458059
O	4.972757843102277	-10.60523293340433	-4.562423159195328
O	7.503960880052052	-11.727799374078558	-4.217224722409019
O	5.112857132906008	-9.207849639107582	-2.4069193236007482
O	4.222560585514623	-8.692923872376614	-3.333597462031091
O	3.18721217748643	-7.767043196181271	-2.835688370854883
O	3.6323607841926124	-6.9260237773913325	-1.92058710959575
O	5.44903180072853	-5.963669085259954	-0.1829677350520993
O	6.835344122119503	-5.97239008265474	-0.3525571580095983
