89

O	1.528118781958209	-4.063810905637313	-0.9769232410074623
O	0.22526227195820892	-3.877086275637313	-0.9583851500074623
O	-0.36073700704179107	-2.737584375637313	-1.3538249280074623
O	-1.474357510041791	-2.307767575637313	-0.7754066640074623
O	-1.292403849041791	-1.2417700056373129	0.049393595992537676
O	0.331568921958209	-1.760045405637313	-1.9254785000074621
O	0.10959610095820893	-0.403601561637313	-1.6476046000074622
O	-0.552408066041791	-0.28010353063731297	-0.5075038595074624
O	0.14798468695820888	0.14359918836268704	0.6389695199925377
O	1.0559229319582089	-1.0819267956373129	0.4039523589925377
O	0.5283150219582089	-1.952641905637313	1.3097886099925375
O	0.19543031195820904	-2.912392675637313	1.7380335699925378
O	1.371916281958209	-1.6932508656373129	2.5656732099925375
O	0.516517631958209	-0.643303498637313	2.7433848799925378
O	2.437209561958209	-2.242266255637313	2.0049372099925376
O	2.239828931958209	-3.489588865637313	1.7114445599925374
O	2.961274981958209	-1.784971565637313	0.7639338699925377
O	2.206226101958209	-0.5601690826373129	0.7072655999925376
O	2.590115441958209	0.25079762846268705	-0.4615871173074623
O	3.2598431619582087	-0.388137913637313	-1.4236295480074623
O	2.952426981958209	1.357924124362687	-0.17764892700746232
O	2.102879941958209	0.13330128536268704	1.8748927499925374
O	-6.9366184380417915	11.746491824362687	-1.7351562700074625
O	-8.08768687804179	8.568674734362686	-0.09295390800746234
O	-6.657309348041791	5.143320284362687	-0.9480538010074624
O	-7.475989648041791	2.0268635043626873	1.1759374199925379
O	-7.5442785980417915	-1.735152105637313	0.4814126899925376
O	-5.863536588041791	-3.1992494556373128	-2.6241193200074626
O	-4.872289098041791	0.18821806436268707	-4.141084120007462
O	-7.182770278041791	-0.432250145637313	-7.006719000007463
O	-4.830074128041791	-3.241203305637313	-8.194257060007462
O	-1.969616698041791	-0.756185355637313	-8.690038600007462
O	0.19456257195820892	-1.017891325637313	-11.808955690007462
O	-1.7045052730417911	-4.022503215637313	-13.064966890007462
O	0.015764267958208955	-5.972537535637313	-10.321435630007462
O	3.430608621958209	-6.246774035637314	-9.039193230007461
O	5.230648191958209	-3.385446965637313	-10.86415809000746
O	8.44445230195821	-4.408540805637314	-8.972337170007462
O	7.259655851958209	-3.364647905637313	-5.5214293500074625
O	4.938299651958209	-0.37378746863731294	-6.507065780007462
O	5.571601561958209	0.657640719362687	-10.152607550007462
O	3.6633692019582087	0.08461340136268705	-13.45013709000746
O	-4.919173868041791	3.493981274362687	-10.263553900007462
O	-10.340666498041791	4.334157174362687	-3.3632622900074622
O	-11.35874653804179	-1.923570245637313	0.06368728699253767
O	-3.8792537080417913	12.763566024362687	1.6863466499925375
O	-4.277555438041791	9.195984234362687	2.9528436099925375
O	-2.6674876280417914	5.9194083343626875	1.8926251499925377
O	-4.791437128041791	3.532695484362687	4.035624309992538
O	-2.915360958041791	0.39938910436268704	2.7551974099925376
O	-3.006255248041791	-2.474417205637313	5.272252959992538
O	-5.272190228041791	-0.563655786637313	7.507500749992537
O	-2.3972100480417913	1.854624984362687	8.206649169992538
O	-0.9218952692417911	-0.7626112056373129	10.612332709992538
O	-4.136513168041791	-2.208544985637313	12.012980909992539
O	-7.087585198041791	0.20265144806268703	12.293781709992539
O	0.12785466995820893	10.153050114362687	5.191719669992538
O	1.567554741958209	8.752304564362687	1.9506947599925377
O	3.0123323319582087	5.243242054362687	1.0801025399925375
O	4.331218771958209	4.234334974362687	-2.298556050007462
O	6.836654291958209	1.702304064362687	-0.9834929660074623
O	9.480482561958208	2.480963754362687	1.7767152099925374
O	7.687856081958209	0.737834929362687	4.699178779992538
O	10.752455661958209	1.131523757362687	6.916376099992537
O	12.753251761958209	-1.2630140156373129	4.670986059992537
O	10.130745061958208	-4.054570715637313	4.8966574899925375
O	8.60985573195821	-6.3605500356373135	7.617361439992538
O	4.867370151958209	-2.226704165637313	8.402507889992538
O	7.067771971958209	0.06900581836268704	10.479538209992539
O	4.184171081958209	0.890121418362687	12.854817209992538
O	1.3429115019582087	3.1843915243626872	11.773337509992539
O	7.157767731958209	7.159270644362687	2.0892842699925374
O	9.102345121958209	5.304084694362688	-0.6286041745074623
O	8.96159894195821	8.054470784362687	-3.3083771000074624
O	6.415240631958209	6.075430364362687	-5.302420740007462
O	3.4187237719582093	7.654686894362687	-6.963256800007462
O	4.587310641958209	10.953158724362687	-3.1132002500074623
O	0.973668351958209	11.982583324362686	-3.7238359200074624
O	-10.610923698041791	-9.237367665637313	-0.7257848810074623
O	-5.646013138041791	-8.225757295637314	8.785618469992539
O	-2.671282598041791	-6.9274084456373135	6.930938999992538
O	-5.035069188041791	-6.134936655637313	3.9601708599925374
O	-5.971245188041791	-9.810863875637313	3.596080339992538
O	-2.337444618041791	-10.822297975637314	3.5829214299925374
O	-1.555817136041791	-8.249623315637313	0.9463847599925378
O	-4.330887868041791	-9.587841855637313	-1.3696931970074622
O	-2.9547519380417913	-13.137600075637314	-0.8469911790074622
O	0.647593191958209	-12.150084775637314	-1.7373437200074622
O	-0.556255719041791	-11.597453075637313	-5.387523020007462
