81

O	0.9198012690723074	-2.2423961059076927	0.7298428206707691
O	0.8787835290723074	-3.2236909259076927	-0.2538277813292309
O	0.09246967907230741	-2.872117435907693	-1.314605038329231
O	-0.2723599899276925	-1.5388940359076924	-1.5593728883292308
O	-0.5211486839276924	-0.8826251079076926	-0.4140720643292309
O	-0.053809663927692486	-1.2307826659076924	0.8120743506707692
O	1.3997199790723074	-2.4235277859076927	2.0008619306707693
O	-0.5223451849276926	-4.171374505907693	-3.9772712993292307
O	-0.6265347299276924	-2.6880603159076926	-4.139547859329231
O	1.6111353190723077	-2.7937577959076925	-3.2405002293292307
O	1.7992268390723076	-3.814183965907693	-4.326117749329231
O	0.15402933907230754	-0.8490058319076925	-2.8174565193292307
O	-0.5664840009276926	0.029853683092307487	-3.296957199329231
O	1.1041331890723076	-4.593920095907692	-0.16905429632923086
O	0.5097668490723075	-1.9301644859076925	-3.6983772693292307
O	2.3264659290723073	-4.998431615907693	-0.7989690167292309
O	7.167258219072307	-4.469679625907693	7.259888460670768
O	5.244584279072307	-1.2340923159076924	6.664267700670769
O	8.334429159072307	0.5444390730923074	5.261961420670769
O	8.855171129072307	-2.4265934359076926	2.9231055206707692
O	5.4258433490723075	-2.275732265907693	1.6356682806707692
O	5.796662959072307	1.4140551740923075	0.9929914606707692
O	9.064055769072308	0.6297034550923075	-0.8869736343292309
O	7.135471449072307	-1.8884516759076924	-3.056301769329231
O	4.4729583090723075	0.7519522120923074	-3.8511236393292307
O	7.107027249072308	3.309310114092307	-4.750405229329231
O	8.827927699072308	0.7512192820923076	-7.0477811093292315
O	5.5077073990723076	0.26982675309230747	-8.776329269329231
O	4.843741399072307	3.9665637640923075	-9.55548969932923
O	8.486398319072308	4.471500284092308	-10.543453189329231
O	5.047684829072307	2.9165419740923073	-14.55888986932923
O	7.493912709072308	8.813819934092308	9.48937483067077
O	3.9232779790723074	6.089914524092308	7.782933560670769
O	3.2869018990723076	8.007396774092307	4.529994260670769
O	4.581555609072307	7.035420434092307	1.1406013006707694
O	4.090476209072308	8.582508384092307	-2.315164799329231
O	3.8964736290723074	5.166051374092308	-3.973410619329231
O	1.3047954690723076	3.9172110340923076	-6.486603939329231
O	-1.5291015019276926	4.028587754092308	-3.907911039329231
O	-4.574062190927693	1.7256458240923076	-3.8608387293292306
O	-8.021145940927692	1.7244931240923076	-5.567256909329231
O	-11.182820530927692	0.9791188340923076	-3.6329498193292307
O	-10.985288430927692	-2.6123453359076927	-4.938109639329231
O	-7.393539900927692	-3.0510020559076927	-3.7514433293292306
O	-8.427698110927693	-1.8400348859076925	-0.31222109332923087
O	-11.378755730927692	-4.260946535907693	-0.004531657329230887
O	-9.237339930927693	-7.093151535907693	-1.4132367303292308
O	-6.978044800927693	-7.168622375907693	1.626036830670769
O	-5.079259070927693	-3.9985449759076928	0.8230613006707691
O	-3.6475813109276927	-5.342104405907692	-2.426274079329231
O	-2.3781318609276925	-8.603634525907692	-0.9148352129292309
O	-3.0666754009276924	-12.229403025907693	-1.713061729329231
O	6.664121279072307	-10.279156225907693	5.4301158106707685
O	4.3134928790723075	-14.474593625907692	3.2026627606707696
O	3.1911274990723077	-11.091462125907693	1.9043388806707693
O	0.8475020490723075	-10.164141325907693	4.708253030670769
O	3.3344376190723075	-7.912473275907693	6.563357860670769
O	0.7416720590723076	-5.115566945907693	6.767654670670769
O	-1.1776411849276924	-6.969335075907693	9.450250730670769
O	1.8562612890723074	-6.872573725907693	11.80832223067077
O	0.6827132890723075	-3.2514335959076925	12.38175073067077
O	-1.6110242999276925	-5.001474745907693	14.942297630670769
O	-5.201491070927693	3.6764003940923073	5.946278880670769
O	-5.7042459309276925	6.686069734092308	3.687521580670769
O	-4.931512200927692	6.136144664092307	0.07121270367076915
O	-4.920557330927693	7.721746094092308	-3.3746417393292307
O	-4.326244930927693	5.971543514092307	-6.687131119329231
O	-9.058136010927692	9.156289394092306	-2.056530859329231
O	-10.372385370927692	6.522024874092307	0.38874315067076914
O	-9.913753560927692	2.1350278840923074	5.232258430670769
O	-2.7373459509276925	13.319097874092307	-0.6115596443292308
O	-1.8189229339276927	13.663799974092308	-4.303997359329231
O	-0.9112054491276925	10.001876374092307	-4.619096559329231
O	0.17611945907230742	7.272810334092307	-2.2468434793292307
O	-0.6583616249276925	5.501843084092307	0.9821662306707691
O	-0.7477160999276925	6.6720134640923074	4.534455640670768
O	-0.8637431824276925	4.284417614092307	7.479128960670768
O	15.377544569072306	0.8055919730923076	1.3241942606707693
O	1.4720671890723076	-13.536381425907694	-6.879491249329231
O	-4.082280450927692	-11.213039425907693	-7.287660339329231
O	-5.635361900927692	-10.246006825907692	-10.62330001932923
