77

O	-0.9880388789113113	-0.040418172580327205	-0.6910537416229511
O	-1.7523078889113113	-0.3722666805803272	0.23560165637704894
O	-2.3617130909113113	-1.698429770580327	0.05462038597704894
O	-1.7897788519113114	0.4837465404196728	1.351639635377049
O	-1.2179452893113112	1.7907027894196728	1.2303350253770489
O	-0.015847700911311158	2.1658394394196727	1.919208815377049
O	0.6484132090886887	2.262620769419673	3.089588015377049
O	0.9431116590886885	2.7944906094196726	1.0878402753770489
O	1.994506569088689	3.548851459419673	1.687400155377049
O	-1.0780136269113112	2.134851669419673	-0.2504394126229511
O	-0.7782725259113112	3.573153039419673	-0.413924658622951
O	0.27346478908868876	3.8151568194196726	0.35169530537704896
O	-2.0384102339113115	4.152602639419673	0.06379725267704894
O	-1.3656546483113112	5.303829409419673	0.772859202377049
O	-0.22281812091131137	4.573745549419673	1.422373775377049
O	-0.9907049769113112	3.8824431994196726	2.482923185377049
O	7.5374684290886895	-3.707123170580327	2.095314155377049
O	8.27877573908869	-0.8246098905803272	4.522739555377049
O	4.479217529088689	-0.011848236580327187	4.503627775377049
O	4.224359499088688	3.726618949419673	4.007423325377049
O	2.5502827890886888	6.548171769419673	6.032533905377049
O	5.063741029088689	9.019481099419673	7.720898315377049
O	9.138626689088689	5.1039644594196725	9.687514695377049
O	4.849352559088689	-2.583532690580327	8.313427285377049
O	5.201634619088689	1.1725383704196728	8.87357632537705
O	1.6818573890886888	2.650638289419673	9.12092508537705
O	2.824329099088689	4.963234729419673	11.917166205377049
O	3.206844639088689	-7.513326640580328	9.60060023537705
O	1.545415119088689	-10.795828290580328	7.736009815377049
O	-1.8287400579113111	-9.322150790580327	8.61897014537705
O	-2.7394985109113112	-6.133199000580327	6.650155455377049
O	-6.374299520911311	-5.086421310580327	6.399560655377049
O	-5.672767470911311	-2.060660480580327	4.1127141653770485
O	-7.048649660911312	1.4834464294196728	4.563785685377049
O	-9.455922520911312	0.7437971638196728	7.428010585377049
O	-13.269344110911312	0.9568216954196728	7.874051405377049
O	-13.322200810911312	-5.251038560580327	6.600426545377048
O	0.7927106090886888	-13.106973090580327	3.912598905377049
O	-2.3053514689113115	-10.957622890580327	4.0918376753770485
O	-3.069071790911311	-7.603333380580327	2.473248295377049
O	-6.737162500911311	-7.296428840580328	1.600182215377049
O	-9.15188942091131	-4.411650220580327	2.166156365377049
O	-10.072881600911312	-4.284200390580327	-1.578879554622951
O	-6.467150190911311	-4.140533240580328	-2.723684544622951
O	-6.970615130911312	-2.871762530580327	-6.254795324622951
O	-10.889141300911312	0.23448326041967277	-8.970362224622951
O	-11.529459210911313	-0.12452887558032721	-5.2688967446229515
O	-1.3106692513213112	-8.826445170580326	-1.787273514622951
O	-2.5619655809113113	-6.592910080580327	-4.674820894622951
O	-1.4497038209113113	-3.1578624505803274	-5.933976044622952
O	-2.7422995409113113	-3.6177063305803276	-9.46954169462295
O	-5.729262320911311	-2.1744423005803273	-11.35803779462295
O	-5.572101530911311	1.0379372124196728	-9.333312484622951
O	-4.415563630911311	2.285155789419673	-5.948169114622951
O	-1.1314019569113112	3.092383899419673	-7.731059854622951
O	-0.5876605039113113	1.2222458684196726	-10.990803294622951
O	1.6025980490886886	-11.186315590580326	-4.364697114622952
O	2.333034019088689	-7.720809010580327	-5.735025424622951
O	2.499664459088689	-4.680465050580327	-3.486525574622951
O	3.761914989088689	-2.124177400580327	-5.975385184622952
O	3.0759988590886884	1.5106580734196728	-4.904715284622951
O	6.260780639088689	3.1567364494196726	-6.210784654622952
O	8.361021989088687	5.002444719419673	-5.274968374622952
O	6.084865559088689	5.575146739419672	-2.180350814622951
O	5.460965259088689	9.347323569419673	-2.017883284622951
O	3.331509669088689	9.446203779419672	1.114194995377049
O	0.5747351790886888	11.162877309419672	-0.7881670876229511
O	2.9412940790886886	13.620213109419673	-2.634473314622951
O	8.02325187908869	-2.2609922705803274	-3.676266604622951
O	6.485186729088689	0.18161750741967275	-1.181180434622951
O	9.22622568908869	2.850898039419673	-0.9837741046229511
O	9.545488689088689	6.477481609419673	0.17492056037704895
O	10.013711189088689	7.530636429419673	3.756845625377049
O	14.54882738908869	4.866851009419673	-2.414484024622951
O	-2.625636750911311	14.019790609419672	-7.591503384622952
O	-5.898929610911312	12.380221509419673	-6.473108164622952
O	-4.576350270911311	9.058878729419673	-7.752510044622952
