90

O	1.8940441688799998	5.59286378968	0.39022046796
O	1.0510956488799998	5.6039980196800006	-0.81821164104
O	1.4211333388799998	4.6821914196800005	-1.94763479804
O	2.7802582988799998	4.51250016968	-1.98187663804
O	3.5283709088799995	4.362908319680001	-0.77960851804
O	3.1908018788799994	5.19596601968	0.33887064696
O	1.5517793288799997	6.1119183796800005	1.77374394196
O	0.4119027498799997	5.42948111968	2.39707593196
O	0.4226812718799997	4.05631448968	2.82048205196
O	1.3696688688799998	3.42079905968	3.72085535196
O	2.7226219288799998	3.08860870968	3.27621834196
O	2.9054995288799996	1.5776632186800001	3.1063890719600002
O	1.6209322688799999	1.1523577496800002	2.48473993196
O	1.1663231388799997	0.18688655968000023	1.7819748619600002
O	1.2464627788799998	-0.54358021032	0.52795071496
O	0.4585331558799997	0.24641718968000004	-0.4736737730399999
O	1.5311177288799998	1.3438806146800002	-0.55069429104
O	1.0125435948799997	2.41859225668	-0.022543866039999944
O	0.08366386277999971	3.04565033968	-0.91428194404
O	-0.7457079931200004	2.8278216726800003	-1.8892726980399999
O	-0.34719433612000034	3.32321799968	-3.25739405804
O	0.7950059368799997	4.18215100968	-3.0884822980399997
O	-0.060263420120000286	6.25301968968	-0.85744310204
O	4.09324508888	3.2954901796800002	-0.53053448204
O	4.09352787888	5.47633017968	1.32809911196
O	4.05296311888	6.52565084968	2.25964856196
O	-0.1429608031200003	6.30115665968	3.48895820196
O	1.4626021488799998	4.13252498968	4.9010367519599995
O	2.3700481288799997	5.1723837796800005	4.863749331959999
O	3.7900933488799997	3.72987866968	3.8370727719600004
O	2.8113203888799996	1.0255535696800002	4.49460769196
O	-0.2229684101200003	-0.2092602003199997	2.3457999319600003
O	1.11715892888	-1.8994367103199998	0.5584345699600001
O	1.69711856888	-2.4740116203199998	1.7138722719600001
O	2.0290574888799995	-1.74328695032	2.70547443196
O	2.6214370288799995	-3.4862658503199997	1.4076732419600002
O	-0.7201907231200003	0.6338559696800001	0.11617438096000002
O	-0.8277853551200003	1.5902751516800002	1.08550238196
O	-2.2102632011200005	2.80746435068	-1.7276119880399998
O	-0.3353215031200003	2.34478710468	-4.06122154804
O	0.48360994587999967	-3.1116002303199997	-12.45716164804
O	3.6831565688799994	-0.9315395203199999	-8.94973138804
O	2.7310545188799997	-3.6981219903199998	-6.57500479804
O	6.32454814888	-4.898443150319999	-6.34835414804
O	7.498266428879999	-1.35490816032	-5.72095072804
O	4.77198065888	-0.9117252303200001	-2.96424176804
O	5.942169338879999	-4.30436065032	-1.5558848180399998
O	9.53233320888	-3.11829398032	-1.6281765980399998
O	8.40522343888	0.11613775968000017	0.09852531296000003
O	6.67614413888	-1.9641471603199996	2.84727028196
O	9.850381908880001	-3.93876534032	3.26633924196
O	11.945954868880001	-0.7296226503200001	3.45025462196
O	9.60574121888	0.5061184696800001	6.207729081959999
O	10.00842238888	-2.58403139032	8.56418687196
O	1.5856021188799998	-10.65318724032	-4.45763165804
O	5.60969722888	-9.23495044032	1.10145529196
O	7.012138268879999	-5.78561782032	4.98052056196
O	5.522587788879999	-3.76598755032	7.831397581959999
O	1.85820647888	-4.61302776032	7.22200583196
O	-1.1495423611200002	-2.2544290703199996	7.83707269196
O	-3.5660846511200006	-1.9701347303199999	10.77875155196
O	-4.4546896911200005	2.1857518766800004	8.19032968196
O	-6.38419966112	0.12450555968000021	5.66084990196
O	-9.43626841112	2.30749489968	6.18155494196
O	-7.584351041120001	5.62736179968	6.16573735196
O	-5.07509866112	4.99045077968	3.36191469196
O	-7.02101896112	2.71836326668	0.98414501196
O	-10.043401231119999	4.70780664968	0.14592995296000003
O	-11.67838853112	7.00180351968	2.7116525519600003
O	-9.189215901119999	9.81126956968	2.14051044196
O	-8.39862279112	10.72870914968	-1.50168749804
O	-4.73794528112	10.65624331968	-2.11979307804
O	-5.68428166112	11.33948704968	-7.34610060804
O	0.5795435678799997	6.30082603968	-12.052929348040001
O	3.3569614488799995	5.546766889680001	-9.538010528040001
O	4.79725981888	9.039189009680001	-9.84737172804
O	1.3751549988799998	10.38421629968	-8.70522836804
O	1.3938388488799998	8.15911059968	-5.60972192804
O	-1.6458583511200002	6.19206076968	-6.483752448040001
O	-0.06645115212000029	3.16511980968	-8.12021426804
O	-1.9273460911200002	0.6692393196800002	-5.94076752804
O	-4.920112721120001	1.4069089616800001	-7.93013096804
O	-8.526697001119999	-8.48194834032	-1.3322460380399999
O	-5.72220026112	-6.779571670319999	0.63791272196
O	-2.6325789111200004	-7.591067300320001	6.08114758196
O	0.8371621308799997	-5.52212525032	11.26038075196
O	0.36197322087999967	-3.6105030403200002	15.90839385196
O	-9.85750358112	-5.13648552032	2.92105792196
O	0.5516164458799997	-8.084074640319999	3.19447575196
O	-2.5988722411200005	-8.65627154032	-2.5464101480399997
