115

O	-4.448278505345679	4.766356412197531	1.8670975702098769
O	-3.996611735345679	4.668064072197531	3.0811413802098766
O	-2.797303925345679	4.007109502197531	2.9083301102098766
O	-0.8837214383456792	3.2733468621975312	1.2803445762098766
O	-4.27537212534568	3.565032072197531	1.1360197542098767
O	-1.9186551113456791	3.4970940521975313	-0.0918826707901233
O	-0.9454708423456792	2.7139097871975313	0.05351880720987667
O	-0.7739962853456792	0.6940637221975312	2.3208109302098765
O	-2.960421825345679	3.1831177321975312	0.8576173652098767
O	-5.036136225345679	2.1173569821975313	4.0855407402098765
O	-2.1261039113456794	3.435676712197531	1.865364020209877
O	-6.161918675345679	1.3802801071975312	2.294078590209877
O	-0.8410353763456792	1.682529261197531	-1.1034662997901235
O	-1.8588134793456792	-0.38742353780246863	0.3239498938098767
O	-2.603474385345679	-0.15804312780246899	-0.7892279897901232
O	-2.1499305473456793	1.0140066671975312	-1.2724115297901233
O	-1.9026423753456791	0.022318892197531248	2.6522213402098767
O	-2.9779415253456794	0.7307275721975313	3.2097127702098764
O	-2.0065865403456793	-1.155839887802469	2.6315570602098766
O	-3.063904515345679	1.169627794197531	4.527092230209877
O	-3.6985631353456796	2.424548796197531	4.322371890209877
O	0.09465369465432083	0.19326623219753114	1.3904434002098767
O	-0.4487450213456792	-0.37562093780246886	0.2094260662098767
O	-0.06045342534567921	0.6596548521975312	-0.5625556697901233
O	1.422244914654321	0.8454298921975312	1.0866634472098768
O	1.361565784654321	0.7340722721975312	-0.3140551177901233
O	2.176288564654321	1.5739611151975312	-0.9962655197901232
O	3.4413258946543213	1.861682146757531	-0.4320073047901233
O	3.137525114654321	2.4163646851975313	0.8094042662098767
O	2.0659320346543204	2.007890831197531	1.5816593702098767
O	-4.1244253653456795	0.6348165121975311	2.4924980802098764
O	-5.201754265345679	1.188136211197531	3.1564805302098766
O	-5.826980765345679	0.6124524921975312	1.2819976532098767
O	-4.843789525345679	-0.2898627678024688	1.7207310702098768
O	7.23585865465432	2.5413404791975314	-11.954254969790123
O	10.29201296465432	3.7673894621975315	-10.087803069790123
O	10.12903956465432	4.401134742197531	-6.349189629790123
O	10.680756664654321	5.313336932197531	0.038414576209876705
O	13.334858664654321	3.286518302197531	-1.7254743997901234
O	13.126307164654321	3.031759442197531	3.6598517002098765
O	12.40548786465432	-0.27125236780246875	1.9235088102098765
O	0.2313082046543209	-2.9590641378024687	10.989197330209876
O	-1.5294444183456792	-4.672554457802469	8.062721030209877
O	-4.627790555345679	-5.550555937802469	10.117907470209877
O	-4.679255135345679	-1.9176752178024687	11.312149230209876
O	-4.621201625345679	-0.7580507578024689	7.753396850209876
O	-7.433465465345679	-3.0375286578024694	6.748259220209877
O	-9.467370625345678	-1.9366680678024688	9.817425930209877
O	-8.97495999534568	1.6967951411975313	8.669212110209877
O	-10.218956165345679	0.8110969221975313	5.172346250209877
O	-14.098063235345679	2.0386217181975312	8.721147950209877
O	-13.936436935345679	4.299701292197531	5.618907390209877
O	-16.30043763534568	2.339040682197531	3.3691556202098765
O	0.20205883465432084	-15.17042944780247	4.020582920209876
O	-2.6997890153456794	-13.224562247802469	2.5854039502098765
O	-4.667983565345679	-10.55171704780247	4.420742270209876
O	-12.60072673534568	-2.1975112978024693	2.841525230209877
O	-12.714968435345678	0.8170803621975311	0.5591158222098767
O	-10.03652563534568	-0.5676883578024687	-1.7987977697901236
O	-7.674878185345679	1.5058611841975311	-4.080638229790123
O	-8.038222005345679	3.092113772197531	-7.490905119790123
O	-5.274355945345679	3.1949191621975315	-9.956291769790123
O	-4.569044525345679	6.839321222197531	-9.107951469790123
O	-4.170559085345679	5.872517732197531	-5.521443879790123
O	-1.7814791063456792	3.124432552197531	-6.3417994197901235
O	0.4634638046543209	5.205446052197531	-8.454745589790123
O	0.20991628465432077	8.821858112197532	-7.431739609790124
O	-1.7156760863456793	9.475940812197532	-4.376582339790123
O	0.20554925465432072	6.828463862197531	-2.3303568797901235
O	3.3628045146543206	7.883340302197531	-3.5768734397901234
O	2.823358614654321	11.237168102197531	-1.9753639897901234
O	2.0634718746543212	9.746042852197531	1.3808669402098768
O	4.886621734654321	7.319654742197531	1.2087932162098767
O	7.29614929465432	10.22827716219753	0.7270008732098767
O	6.111380894654321	12.459464552197531	3.5792043102098767
O	5.6549949146543215	9.479687012197532	5.887268650209877
O	9.072851364654321	8.079748002197531	5.1294513702098765
O	9.009418264654322	11.79969375219753	9.051440880209876
O	9.84020326465432	8.22747448219753	10.082147360209877
O	2.802319584654321	2.758907740197531	12.009206230209877
O	2.6962463146543207	6.204479722197531	13.630480930209876
O	4.159769144654321	7.622218632197531	10.387217730209876
O	1.6913355046543208	6.2545632521975305	8.062111590209877
O	3.9553489846543206	3.821110462197531	6.340631380209876
O	3.334030244654321	0.6774801921975311	8.391628940209877
O	2.405788434654321	-1.175263507802469	5.227016460209876
O	6.087549054654321	-1.3422236278024686	4.425327360209876
O	5.418412374654321	-6.1433301778024685	5.2806429302098765
O	8.92961716465432	-6.2079734878024695	3.9769605402098764
O	8.08948540465432	-10.687158747802469	2.8214775402098766
O	4.279933914654321	-8.012503957802469	-1.7368042797901233
O	1.3365562446543209	-8.206818447802469	-4.079835049790123
O	-1.7129356683456791	-6.189302537802469	-3.696748399790123
O	-4.957228285345679	-7.089205127802469	-5.467895119790123
O	-7.511783955345679	-4.321613437802469	-4.980908989790123
O	-10.91153742534568	-3.0360099678024692	-6.069352889790124
O	-12.36065943534568	0.42722512219753117	-5.325843429790123
O	-9.557358485345679	-4.399447217802469	-10.185936069790124
O	-5.776910865345679	-3.819962607802469	-10.149693869790124
O	-2.623995515345679	-5.643099707802469	-8.979563219790123
O	0.23944648465432072	-3.609169537802469	-7.362969139790123
O	3.455212244654321	-5.539337217802469	-6.751726929790124
O	7.014145114654321	-5.002905737802469	-5.605882119790124
O	11.82749056465432	-3.774122777802469	-3.6827544097901237
O	13.506788064654321	0.34888367219753125	-6.584716859790124
O	10.442240864654321	-0.40216829780246877	-8.688358679790124
O	6.9048011346543205	-1.5979660678024687	-8.522202309790124
O	4.325988834654321	-2.6466844578024693	-11.055055169790123
O	0.6617393946543209	-1.987515797802469	-11.612742869790123
O	-11.571197535345679	-4.499701707802469	-0.9556681097901233
O	-7.893094475345679	-5.311991647802469	-0.7969939997901233
O	-5.812414315345679	-8.43598454780247	-0.7014749997901234
O	-2.271523724345679	-8.152442347802468	0.5743199642098766
O	-0.31303656534567925	-11.18374354780247	-0.47037145779012335
O	2.903148634654321	-11.647205447802468	1.4495430902098767
