16

O	-0.0924899971158406	8.403357664888066	-5.90903579556787
O	-0.6819392209904374	9.387261607537948	-6.7270074233804396
O	-2.041562233363133	8.977205142703479	-6.649426283834335
O	-2.3495525764234917	7.621317768222126	-6.817298438259043
O	-1.2377098905841626	6.805033669741604	-7.092859228310816
O	-0.3615187866611862	6.995046953772485	-5.9968998136537985
O	0.5276048146465779	5.879763553254031	-5.994099624010913
O	0.543089317325884	5.354558245451847	-7.332344661281435
O	-0.841415475380713	5.62222289684256	-7.628200602138304
O	0.006332182623940863	9.287394931945895	-8.063692787498766
O	-0.5787169470803128	9.182260587075314	-9.27323998941759
O	0.12424078754968715	8.179492324726523	-9.841169706647406
O	1.395742808740338	8.066879225323957	-9.489214524661872
O	1.2734342956407403	8.823556082073685	-8.38102179727941
O	-0.5833098242604726	7.010256243044838	-10.350635809326674
O	2.4409271980591214	7.983471204508664	-10.459340709885055
