91

O	-0.34099189862105295	-2.6303364249122807	-1.2966548495842107
O	-0.19276185762105302	-3.847408874912281	-1.9330478185842106
O	0.288063952378947	-4.85772667491228	-1.1526480845842106
O	0.8335477423789472	-4.431716184912281	0.028780806415789284
O	0.053018302378947	-2.2150249449122805	-0.07367510458421067
O	0.797817562378947	-3.1727396949122806	0.5661779614157894
O	2.109074622378947	-2.6197980149122806	0.7453653714157893
O	2.043096472378947	-1.3654125149122809	1.3719091614157892
O	0.7475810723789469	-0.7999788149122807	1.5902420614157893
O	-0.029338387621052897	-0.9988396149122808	0.4677392314157893
O	-3.279367657621053	-2.450012734912281	-0.8677672545842107
O	-3.088602067621053	-2.188749664912281	0.4713954314157893
O	-3.183005617621053	-0.9263535049122807	0.8684614814157894
O	-3.7536766376210533	-0.043672604912280866	0.030751257415789324
O	-3.3403034676210526	-0.18540218691228083	-1.3068394355842106
O	-2.784090037621053	-1.4163177449122806	-1.6917040985842107
O	-3.271182107621053	-3.7069284849122806	-1.3617773635842108
O	-2.884560777621053	-4.794350184912281	-0.6448063569842107
O	-2.338997257621053	-4.45386099491228	0.5600952014157894
O	-2.532327857621053	-3.2036049149122805	1.1824128914157892
O	-3.122720427621053	-0.6090414749122809	2.2499780114157892
O	-2.248728158621053	0.5982571988877192	2.3637286614157893
O	-2.517611177621053	1.483770081087719	1.2784026214157893
O	-1.967235103621053	2.5501338950877193	0.5821652114157894
O	-1.6374536236210528	2.5229679850877194	-0.8681344145842107
O	-0.594393430621053	3.5823373850877194	-0.9167187935842107
O	0.3720795523789471	3.343434915087719	0.18992827941578927
O	1.233208072378947	2.253821115087719	-0.4261267145842107
O	0.26427115237894716	1.1724406610877192	-0.6151320602842107
O	-0.2107335676210529	0.062301672087719195	-0.48250210258421067
O	0.8904018323789471	0.6162967166877191	2.1209292514157894
O	-4.973045997621053	0.7834621670877192	0.42699007141578926
O	2.8798125323789474	-3.5394981649122803	1.4785142514157892
O	-2.904383497621053	-1.7665719349122808	-3.0027048085842107
O	-12.266843297621053	-2.2481215649122808	-5.011482228584211
O	-13.360909397621054	-3.720074854912281	-1.5322209445842105
O	-4.895137427621053	-7.3635603449122815	-5.4281077285842105
O	-3.908717527621053	-6.0938851549122806	-7.97479131858421
O	-1.5588250456210528	-3.5474615949122805	-13.279744728584209
O	2.3150382823789473	4.518453645087719	-13.814573428584211
O	2.5502148823789472	7.993323585087719	-12.29005662858421
O	2.444307562378947	6.525831415087719	-8.851343858584212
O	-1.230219632521053	5.51632093508772	-9.45357900858421
O	-2.130714587621053	9.249364435087719	-9.35352376858421
O	-1.4664276436210528	9.19900046508772	-5.594986888584211
O	-4.769957847621053	7.1875337750877195	-5.196099328584211
O	-6.697736477621053	10.00537176508772	-6.4271851285842105
O	-7.729683087621053	-2.385005584912281	-13.899746728584212
O	0.737641452378947	-8.183230874912281	-10.04313707858421
O	2.118804722378947	-4.7671831549122805	-8.968178928584212
O	2.1951997423789473	-3.667041814912281	-5.456774288584211
O	3.396112202378947	-0.17952756491228083	-4.243588778584211
O	0.972700682378947	1.7815695850877193	-6.412145808584211
O	1.463345062378947	-0.2903227149122808	-9.615766258584209
O	5.179234732378947	-1.1646507249122808	-9.481228588584212
O	4.785936602378947	-7.736587934912281	-5.816219928584211
O	7.878653392378948	-2.794874874912281	-4.411963308584211
O	12.205774302378947	2.868777615087719	-1.6984906085842106
O	8.705134832378947	2.4565686950877192	-3.0379559885842107
O	6.187203472378947	4.96919543508772	-4.378538128584211
O	8.339795742378946	6.277631775087719	-7.245442638584211
O	10.951749102378946	8.38605803508772	-5.5316503285842105
O	6.279248552378947	-12.922480724912282	-4.63122037858421
O	5.7837800523789475	-10.56040022491228	-1.7814990985842107
O	8.972127202378946	-8.853149704912282	-0.7437213932842107
O	10.221748702378946	-5.9886426349122805	1.5874719614157895
O	5.3309049623789475	-13.71457942491228	1.1763731414157894
O	6.093641652378947	-8.39294727491228	4.2941388714157895
O	4.586162942378947	-1.2775352249122807	7.950561421415789
O	6.528339932378947	2.5646770550877194	11.37730807141579
O	3.5327780023789472	4.677960445087719	10.323683571415788
O	1.812606542378947	8.030106385087718	9.98400197141579
O	4.053618082378947	9.079527425087718	7.04431584141579
O	-1.637810252621053	-7.099136844912281	9.92707517141579
O	-5.384253397621053	-6.815620334912281	10.027835771415788
O	-5.068655187621053	-3.0351939649122808	10.48984507141579
O	-3.353935917621053	-0.4040562949122809	12.48657697141579
O	-1.305327029321053	2.597311295087719	11.73494107141579
O	-1.537724146621053	5.61640357508772	13.99588857141579
O	-0.7433397636210529	9.13373010508772	15.05244757141579
O	-1.705119492621053	11.156659975087718	11.38407817141579
O	-10.187382657621054	4.96401963508772	4.814935751415789
O	-7.155194327621053	7.26233824508772	4.810019131415789
O	-5.490498947621052	9.257615505087719	7.53853836141579
O	-3.126868427621053	7.249766145087719	9.678963171415788
O	-4.601308207621053	3.812886985087719	8.93601634141579
O	-2.3294006676210532	-11.26624252491228	6.037847231415789
O	-3.168012267621053	-7.851542004912281	4.52919708141579
O	-6.2648273176210525	-7.59076698491228	4.1766250414157895
O	-12.024854297621054	-7.090644924912281	4.565629191415789
O	-10.522119117621054	-5.33353608491228	7.68064872141579
