28

O	27.457084900605537	2.5145154875154567	6.347845755119359
O	26.267042464378335	3.3910994820562204	6.091692013952284
O	25.170496858870713	2.6739472092652337	5.968634532508982
O	26.392205316428427	4.6897459075518215	5.934657257955728
O	25.34649619814109	5.907289622595082	6.401838114378214
O	27.617379637345337	4.9419973010560145	6.09256899634785
O	28.76281290687529	3.9619670797196225	6.3077272064042695
O	28.796033632861757	2.542366354264271	6.157242235995222
O	29.414952708187805	1.3932045880965025	5.7996437975254596
O	30.49123025876173	0.6512517896997765	5.688772713392547
O	30.31905733557944	-0.10873495952394774	4.372069678973037
O	31.58066604168053	-0.368622127967394	3.770751138523342
O	29.943913942869337	-1.4836857562486514	4.744642377305112
O	29.6009012588623	0.8419991321875526	3.5725243570740015
O	30.294730589952643	1.5451596587662875	2.750229409666202
O	28.452108079438272	1.6452828877924597	3.6227400317054537
O	28.0276120853766	2.9328145169355615	3.264777686008268
O	26.643952006521864	3.100743608377667	3.1880785027391028
O	28.82455996392663	3.9965538120511264	3.3804557354372387
O	27.968167348415626	5.172520314217778	3.293664000747764
O	26.59944394013218	5.341009802118707	3.07222077268875
O	26.071907369376774	6.691672073304071	3.3172272087039008
O	25.961240560914757	7.776292824558878	3.7982902378816084
O	25.810478380853926	4.201758224105648	3.3193444231858518
O	24.40503033940074	4.3806817134574505	3.6412341289137924
O	23.565668446454595	4.1808835314493065	4.756392922693569
O	23.43579184096175	3.724143374075714	3.0277567700595105
O	24.12170847569623	5.707803716992434	3.7018087064851217
