31

O	31.63058695029198	-0.4991491535801529	3.347191219708855
O	32.371685232635784	0.1575520014711571	4.606768913815152
O	31.89870894610259	1.0566182656733016	3.8474122292474995
O	32.4090031134876	0.4957344987281427	5.958245750784343
O	32.09037156341396	1.7693477967549827	6.625401163873431
O	32.31073688219119	2.068094355267218	7.936930074587474
O	31.178749937456587	2.0727734715717374	8.801774635292622
O	31.18380035942879	2.8194040778076292	6.443485804285935
O	30.03948603216492	2.5686161835592505	7.26555157283288
O	30.09183847642759	1.547762377954597	8.237044977834593
O	29.73858601318246	0.21946252441589076	7.8891420697867245
O	29.288041497606148	0.06189163426866551	6.676238980104405
O	29.53037379006959	-0.2967298923823354	5.4413813906668675
O	30.147458892950738	-1.1734737296145534	4.585822058684659
O	30.06492860934809	-1.459135062807251	6.177495093977274
O	29.010542155802554	0.6033978293841396	4.5637910995435576
O	28.429202294406423	0.1858909933885613	3.45378236774091
O	29.189520519680777	1.8773956659129087	4.002448317966529
O	28.14081693951383	2.8068782183742633	4.05700361287486
O	26.796480552919	2.6184883804503993	3.754368088795554
O	28.503272576371923	3.4876657545944836	5.251835405988648
O	27.507567401290295	4.495639137958041	5.340917464880514
O	26.226898804976162	4.65064299528479	4.889092008221791
O	25.42459492080194	5.299044391288857	5.925383151102762
O	26.147267906741103	6.2557652207685015	6.748900088678489
O	25.47701784736524	4.537163844151762	7.0067279449146405
O	25.812585206143055	3.539985716104628	4.116788911720963
O	24.369328349494914	3.4444221436776727	3.9481564097342763
O	24.031298349091003	4.431009486109246	3.0057896635718038
O	23.72122895759413	2.3550387671979665	3.519711053536311
O	23.63210036257001	3.8395929959056865	5.064525715880958
