24

O	-16.391255337835183	34.61380328536768	-0.22975299691075335
O	-20.328850703177974	38.44733203497417	-2.0782075123520243
O	-21.148244777306108	41.17334472479765	-4.384062161770334
O	-16.95941376122081	35.467523266244605	-1.1335977076978665
O	-16.730053870164415	35.21244468797744	-2.3242662644167127
O	-17.801283083734443	36.479853472934714	-0.6167558513213729
O	-18.7512377467141	37.08092614547933	-1.3481992627685575
O	-18.93407175489521	37.00444333173179	-2.6518062470617214
O	-20.089723164685807	37.492855763598016	-3.072423780015496
O	-20.354214612473633	37.944496827154715	-4.455271403392443
O	-21.560492005425168	38.02300790068063	-5.0379813658542805
O	-21.806949790867925	38.58403049502817	-6.270144672445892
O	-20.734487660902545	39.02434704985186	-6.964510468691379
O	-19.54631579381453	39.016884167864234	-6.304003878744065
O	-19.32332403538809	38.14777646307922	-5.2875291274115614
O	-21.16161480561674	39.61658600726191	-2.43996954222825
O	-20.555056497467657	40.440653925992585	-3.3993978996693426
O	-22.49332820435499	41.20169650263778	-4.458072570784218
O	-23.182782271123635	40.410858755965	-3.657534367407092
O	-22.49261924041032	39.50471084685803	-2.844509011269986
O	-19.66892165588382	38.01429525024191	-0.9774798933325091
O	-19.71263369997149	38.40144913644434	0.3246373700494642
O	-18.814391415256022	37.752427142022	1.1886299003210157
O	-17.936181526004486	36.78251295539429	0.6443759735626704
