96

O	-1.1573577373367339	2.5880930788775514	-4.575850937346939
O	-1.6859014616367338	1.9273727638775515	-3.3654369773469384
O	-0.3672037083367339	1.3903860838775515	-3.4928785873469383
O	-0.13997450833673386	-0.26183358612244856	-3.3225130573469386
O	0.7133155516632661	0.39438902387755137	-2.7140529073469386
O	2.062147651663266	-0.11658857612244855	-2.8613544473469386
O	2.827280731663266	-0.005179746122448314	-4.037641087346938
O	3.817761601663266	-0.9832072261224485	-4.268528537346938
O	2.201140831663266	0.6314485338775517	-4.949751167346938
O	-2.507414390336734	2.5869621358775516	-2.4549662373469383
O	-3.7544935483367343	2.5359834088775517	-2.7342836173469385
O	-2.5760175813367336	3.4558824398775516	-1.2937018611469384
O	-2.920581178336734	2.332603330877552	-0.5436933433469384
O	-1.746070395336734	2.2869324768775514	-0.07473224734693829
O	-1.723645960336734	1.2556300638775515	-0.8283849133469384
O	-4.082609948336734	2.3160644388775515	-0.2512605073469383
O	-4.272207688336734	3.8481295348775513	0.1716194126530617
O	-2.825346808336734	4.254837653877551	-0.20395928734693847
O	-4.500258548336734	4.713571213877552	-1.0315960073469383
O	-4.279862578336734	6.206799673877551	-0.7103235463469384
O	-3.7117549283367337	6.253744233877551	0.7154761226530615
O	-2.503292431336734	5.303631333877552	0.5529870726530617
O	-2.0139028223367337	2.7808053618775515	1.2169590826530616
O	-1.124728472336734	1.7726930838775514	1.7050030326530614
O	-0.3097774183367339	2.088272511877552	0.5197181026530617
O	0.24596831166326605	1.5663997038775515	-0.4446937333469384
O	-2.2663661483367337	0.7166338438775517	1.7038997726530616
O	-3.433768688336734	1.5229819138775516	2.274529742653062
O	-2.866590298336734	2.9049914558775516	2.295153982653062
O	0.05172272166326608	3.3647017228775518	0.25194931265306164
O	0.5959224216632661	4.360407143877552	-0.4092732223469384
O	0.6965407416632663	5.253050273877552	0.7098387726530617
O	0.14523819166326613	4.428738523877552	-1.7256300183469384
O	0.6078600116632662	3.4117087958775514	-2.2233066603469385
O	-1.363151689336734	5.252769463877552	-3.6784870273469386
O	-1.748599180336734	6.237161913877552	-2.6601429073469385
O	-0.8519469673367339	7.054638953877552	-1.8875665873469383
O	-1.458044444336734	7.996700093877552	-1.0520871413469384
O	0.478142551663266	7.303077373877551	-1.9864534593469383
O	-0.818753019336734	8.117215173877552	0.18731392265306157
O	1.1523316216632662	7.980643573877552	-0.9744909233469383
O	0.502212191663266	8.545233623877552	0.11582666265306152
O	-2.7103560383367338	4.980977233877551	-4.247430457346939
O	1.107501711663266	8.507933813877552	1.4987570226530618
O	-3.047234798336734	4.119536733877552	-5.145349567346939
O	-0.7108486163367339	4.693493033877552	-2.6458980273469384
O	-3.969763338336734	5.091751763877552	-3.663168137346938
O	-11.282108448336734	-9.847858476122449	-2.403541117346938
O	-9.815355188336733	-7.2890025761224475	-0.07083613734693839
O	-6.1954535883367345	-7.7756975761224485	0.6365197326530618
O	-3.572060758336734	-10.447899776122448	1.0880226726530615
O	-4.961786758336734	-0.9551714561224482	7.187841252653062
O	-6.706946748336734	-3.5638922461224483	5.135154802653061
O	-8.740746068336733	2.5605681438775516	7.194449372653061
O	-11.704027408336733	4.833270043877551	6.295566692653061
O	-10.038061968336732	6.648570523877551	3.415989222653061
O	-9.867810438336733	3.2127273948775517	1.5922981926530617
O	-13.250077008336733	1.9750424238775515	2.452946392653062
O	-11.639249908336733	-0.2516104861224484	5.0921090126530615
O	-3.345694698336734	5.705186113877552	10.17730421265306
O	-3.7238831983367335	9.469932643877552	10.160650312653061
O	-0.03677406833673391	9.504186093877552	9.19965911265306
O	2.454816591663266	7.096893043877552	7.693107952653062
O	0.6901479816632661	3.8773806858775517	8.783043412653061
O	3.2737133616632654	3.2337496598775517	11.59504601265306
O	-0.23243551833673393	0.6139409338775517	-11.66463388734694
O	-2.016192606336734	2.1797852098775516	-14.60683938734694
O	-4.812481338336734	1.5055391238775515	-17.07480488734694
O	8.483845291663267	12.752082783877553	1.5211860026530617
O	6.257868971663266	10.439967023877552	3.601269592653061
O	6.9721638316632655	-4.372948916122448	-6.769750697346939
O	3.8577112316632656	-5.206459496122449	-4.780088897346938
O	0.8594030616632662	-3.3305625561224486	-5.998066547346939
O	-2.705748258336734	-2.329524716122448	-5.233416097346939
O	-4.507718408336734	-5.487467296122448	-3.9197114973469382
O	-1.2598605063367339	-6.973007076122448	-2.4517316573469383
O	-1.5307350768367338	-4.922491366122449	0.7903474026530615
O	-1.483171955336734	-7.242901876122447	3.7694889426530613
O	0.41176013166326597	-10.045182476122449	2.0088808226530617
O	3.7600499916632657	-7.180655176122448	5.519640682653061
O	2.9897168616632657	-5.384869426122448	2.3085742226530614
O	2.321920621663266	-2.074991686122449	3.888606292653061
O	2.605145801663266	0.9610722238775513	1.5777091726530614
O	4.089536001663266	2.5911737648775515	-1.6058551203469384
O	3.487672411663266	5.4264856738775515	-4.121210167346939
O	2.099468121663266	3.9561692148775514	-7.249834617346939
O	3.695126631663266	0.6138003138775514	-8.246893647346939
O	7.1785948716632655	-0.19262460612244858	-9.702327127346939
O	8.003824081663266	3.4752503768775513	-10.422418967346939
O	11.695856691663266	4.278470993877551	-10.917208117346938
O	10.274093391663266	4.5036430738775515	-5.588926537346938
O	10.244452891663267	1.4785612738775515	-3.2987924873469385
O	7.714411071663267	-0.6999874561224484	-1.5481230743469383
O	7.389480131663265	-0.4104813761224486	2.1995653426530613
O	6.849260901663265	-3.313547236122448	4.568436642653062
O	5.768338991663266	-3.5946134261224487	8.22159719265306
