25

O	-27.46112571913909	4.456898517439297	-17.595205067944335
O	-26.283705021348254	4.093308433894766	-17.455700872617435
O	-25.483512868441952	3.3688714243391704	-18.2935371133541
O	-25.659243839928983	4.52506751567984	-16.21196310602159
O	-24.9413598178103	5.751777943208887	-16.38885763253883
O	-25.557411909055993	7.0627614207723735	-16.501269389008005
O	-26.734021753108227	6.908049308915068	-16.98286591796105
O	-25.622542957925425	8.427309226383343	-16.182339766855037
O	-26.096676189464098	9.07818788012828	-15.040106369141654
O	-26.663146474836605	10.355499087757378	-14.886871177470347
O	-26.832101213041152	10.924947230646596	-13.606644363512583
O	-25.75678122065237	10.803551252241817	-12.774828267094273
O	-25.89657713963524	11.651911208148352	-11.060186338464769
O	-25.232681028170074	9.526474603734075	-12.784141011202308
O	-25.1359641883548	8.957984018655683	-14.027956574342289
O	-24.816705331580643	7.465456042962171	-13.951041910576874
O	-23.65199805436636	7.4244297606703595	-14.274027881455385
O	-25.873153809710438	6.7564098146730025	-13.431374363318326
O	-27.129831615387314	6.223825153286738	-13.861048492955248
O	-27.94310735536356	7.340790546835805	-14.29024790636043
O	-29.129858861832016	6.519893810821127	-14.906093337495165
O	-28.681227378898164	8.265742194135742	-13.404269428501612
O	-26.40166781101542	7.543360618836241	-12.306834413292597
O	-27.676582637043182	8.07506201652073	-12.267881968478898
O	-28.60685163594111	6.824363750717244	-11.957830979440557
