57

O	-2.2603263500857147	1.662838675457143	-3.6590577513142857
O	-3.442619017885715	0.944678248457143	-3.5525732213142858
O	-3.8863077478857146	0.530105725457143	-2.2987074513142858
O	-3.2231978498857146	0.842261657457143	-1.1568727213142858
O	-1.7321915438857147	2.1103172554571428	-2.491297081314286
O	-9.525000937885714	-2.142176384542857	2.1425734586857144
O	-9.026561207885715	-1.441943344542857	0.8803296486857142
O	-7.988340947885715	-2.343331314542857	0.27220924768571414
O	-8.325140407885716	-2.152417644542857	3.0862029786857144
O	-7.234601747885715	-2.9109148645428573	2.386646848685714
O	-6.807056107885715	-2.2609805645428573	1.1426223786857141
O	-6.6624031778857145	-0.872050124542857	1.456336468685714
O	-5.260308827885715	-0.3868205445428571	1.400138728685714
O	-5.107036187885715	0.19397827245714294	0.13111401188571414
O	-4.208351727885715	-1.453648284542857	1.372314278685714
O	-3.9121348078857148	-1.9862674845428572	2.613819558685714
O	-3.0381059948857145	-0.693943094542857	0.7666187156857142
O	-2.1825205018857146	-0.40857868454285706	1.812613428685714
O	-3.7341638278857148	0.49253872545714295	0.16786519578571413
O	-1.7639614908857146	2.003394495457143	-4.779033571314287
O	-2.1250248448857145	1.634462154457143	-1.2793794413142858
O	-1.3867986098857146	1.746727535457143	-0.24821833931428589
O	3.8695737021142858	-3.210198284542857	6.128234848685714
O	7.097790482114286	-1.4252875945428571	7.136321528685714
O	5.138264222114286	1.152260906457143	9.165668738685715
O	2.553737552114285	1.798950115457143	6.4491363286857135
O	4.672641732114285	1.5140205824571429	3.318917198685714
O	-2.6592784038857147	6.165285875457143	9.464703278685715
O	-9.153552717885715	5.591333985457143	13.273166508685714
O	-10.050529807885715	7.480281905457143	10.086650908685714
O	-6.699494417885715	6.2358273454571425	5.443569328685713
O	-7.8573114378857145	7.157261215457143	1.9095874186857142
O	-4.947066987885714	5.830435215457143	-0.24694305331428584
O	-1.4255285358857148	4.826006725457143	0.8666980836857141
O	2.009191432114285	4.440798555457143	-0.8167430373142859
O	5.478443752114285	4.887174645457143	0.6599634556857141
O	-3.3691315878857147	-9.895016504542857	-6.472702941314286
O	-6.344384057885715	-7.569511614542858	-6.889277451314286
O	-8.299987967885714	-9.837189204542858	-4.508126821314287
O	1.5972435121142854	-10.998478604542857	-5.318827881314286
O	5.1890074821142855	8.466812805457144	-3.100646621314286
O	1.4159331521142855	8.050436475457143	-3.366735281314286
O	-0.7786107678857146	9.731607835457142	-0.7832158203142858
O	-4.392232127885714	10.385575925457143	-1.687139701314286
O	2.611053972114285	12.395376795457143	-5.8142965213142865
O	3.1730232521142856	-4.951339064542857	-6.581228841314286
O	3.2362667121142854	-6.430142284542857	-3.062480491314286
O	1.6562726021142855	-9.479206704542857	-1.4027098313142858
O	4.119343492114285	-11.748695004542856	0.41130018368571414
O	5.9342027721142845	-8.192769424542858	2.059967748685714
O	2.753922882114285	-7.924317214542857	4.106212018685714
O	0.4727915421142854	-5.8496840045428575	1.7728293686857142
O	0.9687376421142853	-3.125732404542857	-0.8194405553142858
O	-1.3415921678857146	-4.032562474542857	-3.710258191314286
O	-0.6357041678857147	-1.6180461045428571	-6.577429191314287
O	1.871095182114285	0.23413102445714296	-8.656131321314286
O	2.1358680821142855	-0.05540144254285706	-12.438593391314285
