78

O	-0.03189476175362316	1.3108311953768117	1.698444883211594
O	-0.4138586497536232	0.08028088337681172	1.2008113532115938
O	0.27193980824637687	-1.0444715676231884	2.022364983211594
O	-0.34459716375362315	-0.5806877776231882	3.211831703211594
O	-0.5144677287536231	-2.168672607623188	1.554538873211594
O	-0.5200235957536231	-3.539225937623188	1.918049093211594
O	-1.863411443753623	-1.7812844876231881	1.9592675032115938
O	-1.7965023287536233	-0.3353132786231883	1.441831703211594
O	-2.310676711753623	0.6386452173768117	2.247730943211594
O	-6.619404511753623	-13.067664607623188	-3.5282226667884062
O	-6.807236061753623	-10.723368407623187	-0.5528710307884062
O	-5.500937951753623	-7.119728937623188	-0.683453029788406
O	-8.044624901753624	-4.977916617623188	1.2442637312115938
O	-7.003948221753623	-1.3443380976231885	1.7177724932115939
O	-10.018099491753624	1.0275989353768118	2.072155683211594
O	-8.147936431753623	2.815436242376812	4.849148493211594
O	-4.401445031753624	2.736477652376812	5.695627443211594
O	-3.4599830917536227	1.8424228423768116	9.329480133211593
O	-7.151747741753623	1.6626001023768116	10.229220553211594
O	-10.102745091753624	3.494561052376812	8.737700593211594
O	-10.967662671753624	-2.6009761776231883	8.694838313211594
O	-12.292252071753623	-6.182676217623188	12.101640733211594
O	-11.226969871753624	-7.949193117623189	8.902214113211594
O	-11.939033671753624	-9.362457117623189	-5.5010733867884065
O	-10.864898591753624	-5.798591537623188	-6.394462496788407
O	-7.513224081753623	0.3894071600768117	-6.464054486788407
O	-6.506278741753623	4.0084587623768115	-7.049256746788407
O	-3.255223121753623	5.819916652376812	-6.855437696788407
O	-3.3971618817536235	-3.159578737623188	-9.799201966788406
O	-0.9416481667536232	-4.850919117623188	-7.4661601767884065
O	-0.20226583175362323	-1.9868660876231885	-5.020430786788406
O	-0.18301805175362307	1.5959662223768116	-6.539652676788407
O	3.315544608246377	3.042040282376812	-6.1603422567884065
O	4.297229878246377	3.103416782376812	-9.829275566788407
O	1.9417003782463766	2.967865932376812	-12.794659166788406
O	5.077123638246377	-1.9027891376231885	-8.606948846788407
O	7.662612628246378	-1.0087299476231883	-11.186516566788406
O	11.320890628246376	-0.2120043346231883	-10.583589466788407
O	9.604478428246376	-7.600953267623188	-5.4993063767884065
O	6.129193698246377	-8.052926487623187	-3.9418996567884057
O	2.728928558246377	-9.596343307623188	-4.5890098267884065
O	2.9515156282463773	-11.672180407623188	-1.3353675767884061
O	3.2614257682463768	-15.456127107623189	-1.510640916788406
O	7.074449838246378	-15.503866507623188	-1.0143751067884061
O	7.448414538246378	-13.298387807623188	-4.154086786788406
O	-2.546983001753623	-13.921106307623187	-1.3351582867884062
O	-1.4326843847536233	-10.976962407623189	0.7504076812115938
O	-2.933949611753623	-8.104215047623189	2.743940233211594
O	-6.290435081753623	-8.916731287623188	4.3680230332115935
O	9.176295528246376	3.547846812376812	-8.632225726788407
O	11.924980728246377	2.1958672723768116	-6.422319056788407
O	11.405934428246375	-1.1554054876231883	-4.636151206788407
O	12.542398528246377	5.990565232376812	-4.664092746788406
O	8.908045028246375	6.580703082376812	-3.790495286788406
O	-8.558327751753623	7.934458562376812	-4.828740876788406
O	-7.301427651753623	4.8904179323768115	-2.923316066788406
O	-3.505152871753623	4.469558392376812	-2.9614294967884063
O	-3.3902378217536233	5.418552442376812	0.7566853562115938
O	-5.867353301753623	8.310218062376812	0.47128423521159385
O	-1.1201161097536232	9.639539762376812	-1.5897260167884062
O	-0.8420891447536232	10.856461192376813	1.9908158132115938
O	0.36562468824637673	7.428120012376812	3.2049927732115937
O	-2.286706661753623	6.659880392376812	5.866492233211593
O	-2.1586993017536233	7.016187862376812	9.645316203211593
O	-7.342553021753623	7.723590872376812	8.862019483211593
O	-6.399304761753623	10.975140092376812	7.117952723211594
O	12.543416928246376	9.960737492376811	4.321976053211594
O	8.927001728246376	9.307290462376812	5.379157873211594
O	5.452402568246377	9.453085422376812	3.881460723211594
O	6.506732738246377	7.302123792376812	0.8964401002115938
O	10.208246928246377	7.854688452376812	0.37754209061159383
O	8.875772128246377	6.165226902376812	9.705979903211594
O	10.256125628246377	4.933176452376812	6.3863521132115935
O	9.893447628246376	1.1973217103768117	6.874803673211593
O	6.890530868246377	0.5011309266768117	4.571718103211594
O	4.490675558246377	-0.38697287762318827	7.405758753211593
O	2.8070892482463767	2.961542612376812	8.131337063211594
O	4.535536668246377	3.110375682376812	11.559431533211594
