12

O	27.642914891276718	65.74331763566137	8.614570494185134
O	28.573752078103222	66.39157371460972	7.639348092413469
O	27.85319971241096	66.28081468316611	6.0105302199010655
O	30.172347715365262	66.15790055331426	7.728861393153357
O	30.787466589696095	66.34054292945355	9.059742864409902
O	31.082743162652672	65.4155737969815	10.091735914090043
O	32.04864004359949	66.88335055077115	8.56679899056482
O	32.33632234311061	67.93831298178286	7.8235249184064735
O	32.55552411001553	65.76654342808818	7.737156933425065
O	33.78024436237544	65.82801658879825	7.224793063548953
O	31.27362449498197	65.95971894451607	6.862644030858507
O	32.11396124271584	66.82553062264692	6.113655609741174
