63

O	-4.806115941685714	7.9720084449114275	2.3236365847142855
O	-3.7341977216857143	7.0309985349114275	2.1357597247142857
O	-3.7023548616857145	6.428217264911428	0.8319426407142856
O	-2.9390251416857143	5.100209494911427	0.8789064887142856
O	-3.8709505616857145	3.9550803549114275	1.3058054097142855
O	-4.508286101685714	4.694037224911428	2.427850784714286
O	-3.774260801685714	5.904820264911427	3.0227285847142857
O	-3.4374100816857145	2.5851433049114276	1.1413933237142855
O	-2.155178668685714	2.0873329619114274	1.3612926577142854
O	-1.2389983284857145	3.0390978869114273	1.2736776397142857
O	-0.024707331685714262	2.6238583649114275	1.0619090667142856
O	0.01330938831428563	1.6097787249114275	0.15039481671428556
O	-0.9129729876857143	0.6114507149114274	0.07609581971428558
O	-0.7521374596857144	-0.49908743508857256	-0.4641901322857144
O	-1.8902332246857143	0.7690789549114276	0.9640350577142855
O	-2.8483178116857144	-0.24033220508857234	0.8641910437142856
O	-2.7537295816857146	-1.3190955650885723	-0.041345057285714415
O	-4.119712261685715	0.15319540491142725	0.6355547517142855
O	-4.173925021685714	1.4934076549114275	0.5805215527142855
O	-5.5286308516857146	1.5898334249114274	0.5504154787142856
O	0.9791444083142857	3.6312259079114275	0.9247484457142856
O	0.6754285083142857	4.9019888049114275	1.3991464227142856
O	-0.23196325268571438	4.872538934911427	2.9168402647142857
O	1.5960554583142859	5.9005658149114275	1.2658749617142857
O	2.868092458314286	5.511117104911428	0.8313125997142856
O	2.7701026783142857	4.566048904911428	-0.18403314428571438
O	1.7862024383142856	3.6365181129114275	-0.1777541812857144
O	-5.6775402516857145	5.297466294911427	1.9005300547142856
O	-0.9017117546857143	-10.475335435088573	-4.159689835285715
O	-5.876920881685714	-7.913901635088573	-2.0806384752857143
O	-3.8202868816857145	-4.771870125088572	-2.9435458152857144
O	-0.15011187168571438	-4.908200685088572	-3.5615348052857145
O	1.4063286983142858	-2.1037600550885722	-5.752817745285714
O	-1.6556313496857142	0.011147204911427622	-4.892999045285714
O	-4.361608181685714	1.4379884849114275	-7.058713915285715
O	-7.928623791685714	1.1876174149114274	-5.797594865285714
O	-10.311304451685714	2.9064500580114276	-8.194252025285714
O	5.383281018314285	4.787221634911427	-6.834565775285714
O	2.506907568314286	7.326620844911427	-7.309124565285715
O	-0.1163235316857143	5.460191614911428	-5.3083269852857144
O	0.2819771183142856	2.4133448279114273	-7.510652995285715
O	-0.4094746946857144	4.336818614911428	-10.726139335285714
O	-5.6947060416857145	6.903563734911428	-12.957954535285715
O	-9.352772151685715	6.177466344911427	-13.685077535285714
O	4.030221448314285	-5.504555985088572	4.460835374714286
O	4.960281888314285	-2.0926455450885726	3.1102325647142854
O	6.430547018314286	1.2746669349114275	4.331752724714286
O	8.618578608314285	1.2826384949114276	1.2213176797142857
O	9.969753548314285	-2.2049784450885728	1.9172426947142855
O	10.985507448314285	-0.9790693650885727	5.405620154714286
O	-0.9555281546857144	-6.234532075088573	4.748890434714285
O	-3.6987653116857144	-4.956373975088573	2.4239844547142857
O	-6.734676271685714	-5.023751725088572	4.689418534714285
O	-7.047004901685714	-1.2607882650885722	4.447959464714286
O	-3.3767962416857142	-0.2522503550885724	4.7108872847142855
O	-3.4700472716857145	1.1572769849114275	8.260612344714286
O	0.25241562831428555	1.7089107649114275	8.714542524714286
O	1.1255412783142855	-1.7890856650885727	7.488636384714286
O	-1.3523711756857144	-3.2631051650885725	9.982920594714285
O	0.3323031983142857	-1.2083528750885728	12.722655764714286
O	11.510365148314285	2.3411682169114276	-4.675859655285715
O	4.3027373483142854	5.0703173549114275	13.937130864714286
O	5.117917948314286	9.159147844911427	10.874848064714286
