14

O	36.49797259753632	39.03915735598822	-6.033689344182036
O	35.330945285103695	39.10849743208486	-5.630553484615301
O	35.23266654998347	39.61632183452312	-4.408744720912698
O	35.65613254898446	40.7036258344684	-3.7313521288762113
O	35.62449608086016	40.89726669851205	-2.2909268259517575
O	36.36543346864246	39.769887321413435	-1.6982466635698605
O	35.60024717191487	42.14999573650184	-1.7793962194325779
O	36.62932099977035	42.816167759078745	-2.385245508824809
O	36.51105602345934	42.74621905697025	-3.8415237803123086
O	35.839744322120104	41.7761815158433	-4.479848367690855
O	35.98037126804132	41.686972189444816	-5.910719404289844
O	35.00462560302799	42.15816554483717	-6.700131068066052
O	37.12688803255465	41.87525804098646	-6.314684981110202
O	34.44005386725542	39.05929791891107	-6.849151851175676
