88

O	-2.8140376431044767	0.4993830004477606	-0.495825513165672
O	-2.470135053104477	1.8180184304477605	-0.309137588165672
O	-1.376242132104477	2.2323806804477604	0.447853223834328
O	-1.541939712104477	2.0907415004477605	1.9575001638343281
O	-1.939864303104477	0.7099926018477606	2.0609817538343282
O	-0.18829472310447692	2.0241111604477604	2.6654315538343276
O	0.309149451895523	1.1622337384477606	1.614161873834328
O	0.8923210668955232	2.0734949804477605	0.7842797038343281
O	2.049053496895523	1.2342044364477607	0.347257322834328
O	-0.16907214710447693	1.6680537304477605	-0.264107783165672
O	-0.03612441610447692	0.3225624334477606	-0.11052206316567204
O	1.297426096895523	-0.0018642465522393792	0.03232179083432796
O	1.377830606895523	-0.7886225695522394	1.266968713834328
O	1.8543468168955233	-0.5439776795522394	2.497476043834328
O	1.1929157568955229	-1.978570789552239	1.004474263834328
O	1.8380912168955232	-0.5677937695522394	-1.196110479165672
O	0.895640396895523	-1.6267809595522391	-1.693502666165672
O	1.5848137568955232	-2.1186553995522392	-2.9041346061656723
O	1.5613402868955233	-3.3542426495522397	-3.4466060461656722
O	2.5041742068955233	-1.5526708595522392	-3.5126936661656716
O	-0.42566276810447695	-1.1794424395522394	-1.953102706165672
O	3.4863046868955228	6.34231131044776	-9.933088536165672
O	3.9663908668955234	7.216866670447761	-6.258121626165672
O	2.537246996895523	9.829888000447761	-3.882971026165672
O	-0.250900509104477	8.22480945044776	-1.838137576165672
O	-3.435705993104477	9.89584663044776	-0.565886553465672
O	-6.0336742331044775	10.003393660447761	-2.132196656165672
O	-4.722613183104477	8.100986400447761	-5.176206866165672
O	-1.897937583104477	10.43979113044776	-6.180500766165673
O	7.209037106895523	9.73098035044776	-9.582558356165672
O	13.316944526895522	5.3628445104477604	-5.188083646165672
O	9.880762126895522	6.099144450447761	-3.7111605061656716
O	9.051298746895522	2.3713092804477607	-3.460773186165672
O	6.213755136895522	0.17858901744776062	-4.737122666165672
O	8.514914266895524	-2.8061981895522394	-5.315590436165672
O	9.889017526895524	-5.88082544955224	-3.612109286165672
O	-0.8867411351044769	3.7020746704477605	-12.397985026165673
O	-0.927301151104477	3.5814558604477607	-8.616846146165672
O	-2.5520031431044767	1.5366841654477605	-5.869686916165672
O	-0.29310950810447695	-1.3285552895522392	-7.002895016165672
O	-1.278338964104477	-4.617834629552239	-5.458673516165672
O	-1.7794874331044768	-7.639632249552239	-7.7540930061656725
O	0.218148365895523	-10.54998088955224	-6.328692876165672
O	5.127688396895523	-12.96870768955224	-7.164368526165672
O	-9.785260133104478	-1.5927860795522393	-10.510789616165672
O	-10.252171733104477	-1.6919060595522395	-6.712246526165672
O	-10.247785153104477	-4.365482099552239	-4.013062716165672
O	-8.587418933104477	-4.327648429552239	-0.609356280065672
O	-7.161187583104478	-6.465395579552239	2.1391349138343276
O	-4.4402960231044775	-5.93520355955224	4.705489483834328
O	-5.641468573104477	-4.886000559552239	8.165875823834329
O	-4.239831513104477	-3.0320044095522394	11.213775573834328
O	5.3995912768955225	-2.9489501695522393	11.171549973834328
O	4.6256358468955225	-2.0367259695522395	7.565469843834327
O	5.832960246895523	0.2440323824477606	4.7945679938343275
O	9.145893026895523	-1.1021574295522396	3.467647253834328
O	9.243844876895523	-2.8586681295522394	0.07074504183432806
O	5.539397816895523	-3.058379559552239	-0.616885618865672
O	3.1187893068955233	-5.981674599552239	-0.9374215871656719
O	2.133754806895523	-5.744584799552239	2.768811553834328
O	5.7495596668955224	-6.31621236955224	3.846646193834328
O	6.050746716895523	-9.12446112955224	1.272248183834328
O	2.8417460968955233	-10.783177789552239	2.483276203834328
O	9.561083826895523	-0.9013231895522394	8.603119573834327
O	8.734472206895523	2.6637838704477605	7.6010663438343276
O	9.473567126895523	4.6113618804477605	4.4030911338343275
O	5.914855836895523	5.508955640447761	3.4830800338343275
O	2.355574456895523	5.7514648704477604	4.8167812638343275
O	2.9199855968955233	9.17173708044776	6.4098116438343276
O	3.8064852668955234	4.996345450447761	9.495316473834327
O	0.8115744468955232	7.119320000447761	10.472435473834327
O	0.740192606895523	-0.18134764255223934	11.194395373834327
O	-0.17926300210447693	-3.0371394195522394	8.876455323834328
O	-2.0575046831044768	-1.2150421795522393	6.155991503834327
O	-4.466337903104477	-1.8062759695522392	3.287262553834328
O	-8.123316273104477	-1.4101537795522394	4.0801148938343275
O	-8.738605523104477	1.2050553094477605	1.373921513834328
O	-6.155124003104477	3.4642803304477607	3.021543983834328
O	-7.3776513331044775	2.715140810447761	6.5238944938343275
O	-10.908976273104477	3.7361707004477607	5.442230233834327
O	-9.513834403104477	7.02093929044776	4.078852893834328
O	-7.4204185531044775	7.98558369044776	7.128286873834328
O	-9.175725953104477	-8.096892829552239	6.6473313438343276
O	-6.453029743104477	-10.722038089552239	6.682737043834328
O	-6.896175023104477	-5.990930029552239	-5.853520976165672
O	-4.997762223104477	-3.0840296995522394	-7.3350137161656725
O	-4.174674703104477	-3.191128999552239	-11.051737026165672
O	-2.359587733104477	-1.1316919295522392	-13.635175226165671
