64

O	-3.646677248666668	6.103944480312354	-0.6219411534313726
O	-2.660961658666668	5.406096380312354	-0.9339075554313727
O	-2.7350808486666676	3.9967375403123535	-1.3422107354313726
O	-1.7332623096666677	3.4440201103123536	-2.0833153654313725
O	-0.5153766396666677	3.5908025103123533	-1.2239676864313727
O	-0.30236009266666775	5.072534520312353	-1.1120511024313726
O	-1.3524214416666678	5.817737330312354	-0.3358947938313726
O	-1.8476904906666678	2.187129617312354	-2.5108570954313727
O	-1.9333639976666677	0.8264231953123535	-2.1618077754313725
O	-1.6321038786666677	-0.2629939796876466	-1.4654212754313725
O	-2.386375368666668	-1.3620839096876465	-1.7475441954313726
O	-2.7562812586666676	-1.1522294296876463	-2.9690138054313726
O	-2.781339228666668	0.13210285031235358	-3.008541205431373
O	0.40400592133333224	-4.7537779096876465	6.856238854568627
O	0.5204150413333324	-1.7496594096876465	4.553455394568627
O	1.847155531333332	-2.7491141996876465	1.0701683745686275
O	1.8035580213333324	-6.473861969687646	1.9385089145686274
O	5.117234761333332	-5.760809319687647	3.779865034568627
O	6.655083161333332	-5.2980004196876465	0.3035655215686274
O	6.918365971333332	-9.096431459687645	0.034843238568627366
O	9.256569981333334	10.413707820312354	-4.727364095431373
O	6.505621721333332	9.719727720312354	-2.188323925431373
O	2.718582741333332	9.336723410312354	-2.541781665431373
O	2.5237195713333325	6.577196460312353	-5.120388855431373
O	5.253099311333332	6.038747470312353	-7.596546305431373
O	3.778335851333332	4.717689510312353	-10.902468995431372
O	7.134234661333331	3.2568913103123536	-11.981741895431371
O	8.381398201333333	8.642152140312353	-11.427476195431371
O	7.166943941333332	-2.676884979687647	-5.5211549354313725
O	5.554606061333332	-6.077552269687646	-5.875570355431373
O	3.6662973413333324	-5.789891139687647	-9.149256675431372
O	2.6434170413333327	-2.1345869296876465	-9.054414175431372
O	2.7388038613333325	-1.3616754096876467	-5.307173645431373
O	5.400467061333332	1.4141608393123535	-6.001989265431373
O	6.134261691333332	3.1593580403123536	-2.6780400554313726
O	9.389409381333333	4.833620320312353	-3.768047575431373
O	9.158102681333332	3.747326720312354	5.699177034568627
O	6.567652181333332	4.715071660312353	3.061001274568627
O	4.136725251333332	6.4135093903123535	3.349104324568627
O	3.822389981333332	6.637873070312353	7.116804304568627
O	3.8949907413333325	2.8403010303123537	7.582109994568627
O	0.25228941133333227	3.0045061903123536	6.454091174568627
O	-1.2249896806666678	5.113881870312354	9.271430114568629
O	-1.2126880146666676	-6.1249707396876465	-11.609715295431371
O	-3.2164698986666673	-5.070800319687646	-8.579279165431371
O	0.3652520813333322	-8.829797659687646	-2.9932041454313727
O	-2.314402268666668	-6.365522699687646	-1.9887684654313726
O	-2.1244725186666678	-3.6079300096876468	0.5957248905686274
O	-4.264326008666668	-0.6656058096876463	1.7543348945686275
O	-3.937683018666668	2.2740460853123534	4.101189644568628
O	-5.756377608666668	4.566415830312353	6.552562464568627
O	-8.728359668666668	3.2368407903123533	8.528984374568628
O	-10.032036488666668	1.6790795903823534	5.297426344568628
O	-7.340531438666668	-0.9410173696876465	5.695082924568627
O	-7.569259778666668	-3.452747429687647	2.866565534568627
O	-5.266825728666668	-6.458608179687647	2.660104604568627
O	-4.107598388666668	-9.287408159687645	0.4053349345686274
O	-6.457997398666668	-8.567377859687646	6.463160914568627
O	-9.239605118666667	-6.020782299687647	7.033018374568627
O	-9.614842258666666	6.991231770312353	9.628503434568628
O	-11.131114318666667	7.914071720312354	6.267650034568627
O	-11.325883218666666	0.3587431503123535	0.8100478545686274
O	-13.263800318666666	-2.917292879687647	0.8292145345686275
O	-11.579726018666667	-5.3707670796876466	-1.5465636254313726
