17

O	1.669316389356756	42.95525380922502	22.125383649997865
O	1.1271789973091288	41.812613475104655	21.9228095017169
O	0.4687410619072123	40.9920462052163	22.919253376026084
O	0.9288251026215311	40.89520506959908	24.31055853780542
O	2.099716888429046	40.02168528886158	24.514397338405523
O	1.9016751863556127	38.75952776691942	23.930502862859967
O	2.473637304793911	39.93651737950639	25.733824369895697
O	-0.09674564479037207	40.193719389815854	25.20898601008752
O	0.23249523314944875	41.71255312336854	20.74792089222842
O	-1.0419338058978629	42.12523247577523	21.413135948431485
O	-0.8809976106648263	41.536893868779224	22.783681838653212
O	-1.911235989699714	41.286827242799596	23.423881426486446
O	-0.156193592273413	40.28690781137928	20.373963907352096
O	-0.8714014912750301	39.59768127409983	21.554577309420722
O	-2.3310390038562367	40.08356266831015	21.526512439527682
O	-1.3945884869630087	40.633419827099885	19.531440766624222
O	-2.1005389098209033	41.36602166655822	20.67169441421404
