26

O	18.096883364611813	16.760980934038233	22.70988185690249
O	19.197819061242747	17.256563172748876	23.009409000062654
O	17.312483061407367	16.254677837568618	23.655987692912255
O	16.0350766798226	16.01823840926012	23.342994312608035
O	15.386585934157214	15.321155369397854	24.233608077497205
O	15.546590463522586	15.841257458223492	22.082981651880186
O	16.266155417645827	16.342782976096977	21.0794928104927
O	15.664199404305087	16.620035824525	19.84047637326209
O	14.246404221729675	16.09420269498398	19.500059410765985
O	13.704657050990242	16.4161170670348	18.18915505216559
O	13.521464763361239	15.208531204556369	17.43806051634505
O	12.856753456151456	14.249089798518934	18.2757365805539
O	11.939612583345626	13.459634761668491	17.35051376638546
O	10.633751354653967	13.414227619304219	18.094367296010386
O	9.659144450331393	14.330447336613707	17.36310740273337
O	10.595818977421501	15.276894584642104	16.735302403060594
O	11.627705953398078	14.342376895603898	16.19327938821337
O	16.326872420148614	17.148067351222995	18.923085153046564
O	16.285499809535906	17.800891223572442	17.71436074755973
O	17.538359355341104	18.1113069798392	17.226239855406856
O	18.075402246657987	18.941307118455562	16.222354461978004
O	17.280719845624184	19.00983731761752	14.988764028020539
O	18.226730432424972	17.31400090384161	17.956527535684067
O	17.76437795049518	17.475763475313165	19.244193546212728
O	18.442495819236562	17.31747645721451	20.511179138255613
O	17.626264952310642	16.703000375789536	21.41073938444265
