68

O	3.2654477252500005	3.362685116232143	1.2789274749519646
O	2.0705305452500005	3.238447136232143	0.8639451329519646
O	1.49186938525	4.446234316232143	0.2489464438519646
O	1.3983431052500002	2.217460154232143	1.5702090079519646
O	1.73642534525	1.7803375602321432	2.8875685579519645
O	2.3527283952499998	2.476986736232143	3.892602967951965
O	3.45541687525	1.808489752232143	4.418064187951964
O	2.8590162152500005	0.17790410623214314	4.303660477951965
O	1.4982221652500003	0.4620580252321431	3.2697255079519647
O	0.32060255525000003	-0.3751981537678568	3.2078679079519645
O	-0.055307784749999866	-0.8652082937678569	4.3309402979519644
O	0.35092524525	-1.449322583767857	2.2898174379519647
O	-7.682555714749999	5.470591406232144	-1.1241504520480352
O	-6.78709214475	1.9828747482321432	-2.383046912048035
O	-3.1589981847499997	2.1718434902321433	-1.4356753720480353
O	-1.2728336217499998	-0.8871192537678569	-2.751952302048035
O	-4.37309847475	-2.3322799137678567	-4.356865552048036
O	-3.4308899647499995	0.30477938723214315	-6.993542312048035
O	-0.65718971875	-2.126379183767857	-8.006061552048036
O	-3.32515907475	-4.360327823767856	-9.602572042048036
O	14.990255475249999	-2.421397143767857	-4.450645192048035
O	13.62276087525	-0.740183433767857	-1.2723927220480356
O	10.01829127525	-0.6627811837678568	-0.0725320000480354
O	9.90820067525	3.129786446232143	-0.42483292704803544
O	11.562239175250001	5.617142776232144	-2.703957052048035
O	11.20311007525	-7.999168913767857	-1.7032617220480355
O	7.888594415250001	-6.116545433767857	-1.8459791220480355
O	8.75778788525	-2.619251073767857	-3.1037756420480354
O	7.01054214525	0.5210072732321431	-4.350142072048035
O	10.316012875250001	1.5300605282321431	-5.950432852048035
O	6.45265004525	1.906104545232143	-9.408019312048037
O	-8.53377607475	8.482486346232143	6.253337287951965
O	-5.42312633475	12.262977336232144	6.832688277951965
O	-5.06024016475	11.991484236232143	3.0639946379519647
O	-2.1220347247499998	10.390055786232143	1.2216109819519647
O	0.69561487525	12.887575636232143	0.5585669259519646
O	5.94317636525	7.095454276232143	-8.200762922048035
O	2.8143622852500005	7.461326836232144	-6.055082582048035
O	0.40953431525000017	7.034747646232144	-8.989399352048036
O	2.15866424525	3.840920476232143	-10.105519052048036
O	2.54812385525	2.218158007232143	-6.684613602048035
O	-0.2915379737499999	3.3585949262321435	-4.4115976620480355
O	-2.18721811475	6.299090876232143	-5.887380122048035
O	3.5556789252500005	-7.7126695537678565	7.0831913179519645
O	6.00323927525	-9.898137163767856	9.063917727951964
O	5.86073312525	-12.194605163767857	6.023190597951965
O	4.440088005250001	-9.986859863767856	3.2306254779519645
O	7.18893306525	-7.308158973767856	3.4816319679519645
O	10.00964547525	-9.813740963767856	4.170336437951964
O	-5.984094864749999	-11.200088463767857	-4.0888726320480355
O	-4.31226408475	-7.9580867937678565	-3.053747362048035
O	-3.91894737475	-6.194999733767856	0.2471067730519646
O	-3.4378576347500003	-2.393805973767857	0.2917356412419646
O	-3.00429681475	0.5006219082321431	2.655922577951965
O	-2.18430387475	4.1661022462321435	3.020421057951965
O	-1.5777021587499998	6.054035836232144	6.268785077951964
O	-5.34089019475	6.418172116232143	6.703737867951965
O	-6.88615024475	3.553820426232143	4.697363007951965
O	-6.97436201475	-0.25532405376785694	4.540078747951965
O	-8.31882553475	-2.2476104937678567	1.5815548579519647
O	-8.50490307475	-5.841927623767857	0.3829378252519646
O	-9.69244763475	-7.527884743767856	-2.823927322048035
O	-10.83555426475	4.5259747162321435	6.109652867951965
O	-8.55768694475	3.031639046232143	8.742443567951964
O	-5.34098798475	1.087078739232143	8.303309197951965
O	-6.198736064749999	-2.0165474137678565	10.367624747951965
O	-4.03737051475	-5.180896163767857	10.270126357951964
O	-3.9451071647499996	-7.297731523767856	7.074847907951964
