69

O	-1.393688040576272	3.5850610503728815	3.481150200544068
O	-1.495693649576272	1.6681607603728814	2.3202422205440683
O	-0.786359895576272	2.775194220372881	2.756123960544068
O	0.6127618464237281	3.0344158103728813	2.726383110544068
O	2.508926146423728	2.0123912003728814	1.923098070544068
O	1.322355956423728	1.9039117703728814	2.590405470544068
O	1.394192116423728	4.098449070372881	2.538889510544068
O	2.2223037264237284	4.048121720372881	1.471230554544068
O	2.2573183264237278	2.8183415103728815	0.8885085235440681
O	1.145340366423728	2.057556670372881	0.25204893854406807
O	-6.316664443576272	5.391680420372881	-4.014349469455932
O	-9.999097833576272	4.695288580372881	-4.7754103694559324
O	-9.299308013576272	1.6946234503728812	-7.008598449455932
O	8.333537606423727	0.3103850183728813	-6.518296349455932
O	6.246728976423729	-2.731390749627119	-7.336254059455932
O	5.740641586423728	-9.88684335962712	-7.663399909455932
O	9.512267576423728	-10.56007925962712	-4.190442859455932
O	9.402642176423727	-6.915618269627118	-3.124566819455932
O	9.684111876423728	-4.722945549627118	-0.0005315224559319098
O	13.069730376423728	-4.326709109627118	1.6970892405440678
O	12.428063376423728	-0.5844956396271187	1.9246925205440681
O	12.512467476423728	-0.6200137896271186	-1.894237139455932
O	9.641871276423727	-1.8361049896271187	8.99122049054407
O	-2.208884833576272	-3.3914382396271185	-7.334210949455932
O	0.356193766423728	-0.8045387396271187	-8.373759169455932
O	1.3532653064237279	2.3614408003728813	-10.21839874945593
O	1.4825445364237282	4.511215610372881	-7.059573419455932
O	-0.20751780957627197	7.789456800372881	-6.175752339455932
O	-3.993154033576272	7.8021815503728815	-6.674298619455932
O	-4.967962893576272	10.87734584037288	-0.547334609455932
O	-1.8464008525762718	-0.32396705662711867	-13.53019674945593
O	-4.424540363576272	0.3078304373728813	-10.806715649455931
O	-8.551669193576272	-6.767213999627119	8.71964852054407
O	3.5658488364237284	-0.6481990696271188	15.686987150544068
O	-1.2366685945762719	-7.384577919627119	8.684588790544069
O	-3.7145171835762723	-4.645974529627119	7.860599600544068
O	-5.996136193576271	-4.667144459627119	4.849100800544068
O	-8.437433713576272	-2.1522528196271185	3.454150910544068
O	-11.241916223576272	-0.03319151462711867	4.866731490544068
O	-10.911976223576273	5.525851710372882	4.396054470544068
O	-10.992108223576272	6.3373382403728815	0.6749113014440681
O	-9.574829803576273	3.0366261403728814	-0.5925925994559319
O	-5.891893073576272	2.0961379403728815	-0.0012505744559319076
O	-2.4128948435762716	1.5879729603728814	-1.455431799455932
O	-0.038584866576271915	4.5456928103728815	-1.3684402294559321
O	3.4238972564237287	5.921536450372882	-2.268175789455932
O	4.784889126423728	4.176810330372881	-5.288415279455932
O	2.799121536423728	1.0013483113728814	-4.653559209455932
O	5.442785146423728	-0.2031787096271187	-2.166121169455932
O	6.767795426423728	-3.696938619627119	-2.755678949455932
O	3.745474156423728	-4.691230289627119	-4.832018829455932
O	1.3946658064237283	-7.637349449627119	-4.348391459455932
O	1.130896506423728	-9.590644859627119	1.308763011544068
O	3.5795114164237285	-6.947164239627119	0.16919153554406807
O	2.687798476423728	-3.2254386696271187	0.14414053954406808
O	4.670676396423728	-1.9115787896271188	3.131767550544068
O	3.523015906423728	1.1525343663728813	5.058469260544068
O	0.669705886423728	3.2456792003728814	6.268810070544068
O	-0.19084831357627197	6.705370210372881	7.660401970544068
O	-0.6220405935762718	8.702637750372881	4.482437710544068
O	-3.0367464535762716	6.949938130372882	2.174557640544068
O	-6.758174993576271	6.120973410372882	2.444718950544068
O	-7.096518033576272	8.061011930372882	5.708857920544068
O	-5.369191793576272	4.256495480372881	9.02906110054407
O	-5.5408735435762715	1.1603161683728813	6.831656520544068
O	-2.677992573576272	-0.1800619196271187	4.729149850544068
O	-0.041094153576271886	-2.287250609627119	6.445555260544068
O	1.385353486423728	-5.261318539627118	4.566874740544068
O	4.262138386423728	-7.690866289627119	5.016214170544068
