75

O	-1.4833446563372876	1.2841730531694915	0.12543680004576263
O	-2.2647225783372877	1.5393910211694917	1.2090064937457627
O	-2.1313431383372876	1.1589263871694915	-0.9307109262542372
O	0.8324225716627124	-0.41071525883050847	-0.47862372825423743
O	3.665961141662712	-2.4197161188305083	0.11844068834576262
O	-1.6455190173372878	1.4866377311694916	2.3871009237457623
O	-0.4694744153372877	0.9061893281694915	2.5486464537457625
O	1.891588181662712	0.9713043981694915	4.153798723745763
O	0.26724468466271234	0.5295043561694915	1.5111451237457627
O	-0.3438716973372877	0.5005878941694916	0.3034964387457626
O	1.9941970316627122	-0.6825154788305083	0.9362074487457626
O	3.2924394616627124	-0.7613204288305084	0.5341067647457627
O	4.240975601662712	-0.33726049283050846	1.4385557037457626
O	3.7518828016627124	0.4097836654694915	2.4102515837457625
O	2.497078201662712	0.21795018116949152	2.7660649137457622
O	1.6000632816627123	0.37516106036949154	1.6485754637457626
O	9.808611061662713	7.953703071169492	2.4705048437457626
O	6.217895491662712	8.415694001169491	3.5818837937457624
O	5.0332688316627126	4.930034021169492	4.321534723745763
O	1.6699755216627121	5.772829081169491	5.881847683745763
O	-1.1398643763372878	8.27214879116949	6.157824953745763
O	-4.719671708337287	8.27946686116949	7.407928693745763
O	-6.8555723383372875	6.587510781169492	2.9209653137457625
O	-4.6432907683372875	9.60544225116949	2.0876113837457626
O	-0.7954754189372877	9.58727248116949	2.1342173437457626
O	1.2953201016627123	6.715740261169492	0.7786205357457625
O	4.960649841662712	7.047675561169491	-0.22285111025423737
O	7.589561311662712	4.568018351169491	-1.2469291362542374
O	8.468232331662714	4.813154041169492	-4.866250556254237
O	10.586920961662713	3.3854826511694918	-7.652186166254237
O	9.509805961662714	3.2724212711694918	-11.284086886254238
O	9.960497961662712	-1.5438985088305084	-10.165056986254237
O	9.192524041662713	-0.9059302188305085	-6.496063956254237
O	5.8719462216627125	0.9371401211694916	-6.105285356254237
O	3.7162689316627118	2.6608594811694917	-3.5318954162542378
O	2.528295951662712	6.174417431169491	-4.395537706254237
O	-0.8089950808372877	7.148659981169492	-2.9097986962542377
O	-2.2058384783372875	10.700455371169491	-2.7833555062542374
O	-5.883457078337288	11.350934471169492	-2.1949144162542376
O	-11.474837938337286	3.676804221169492	-5.520819766254237
O	-1.8943221383372877	-11.49092162883051	-6.143224166254237
O	-4.428878508337288	-11.23020942883051	-3.2681779762542376
O	-4.943068438337288	-7.500627638830508	-3.8998778762542377
O	-2.321959158337288	-4.730756758830508	-4.170900206254237
O	-2.7238521483372877	-3.9422801088305084	-7.891356756254237
O	-5.4983877283372875	12.031882971169491	-7.467778886254237
O	-2.2952530783372875	10.01880746116949	-7.411519596254237
O	-2.3480414283372877	6.221949861169492	-7.613835446254237
O	0.6181761116627124	3.9906929911694915	-8.357775226254239
O	0.35852318166271224	0.5975749151694916	-6.658688746254237
O	2.583032691662712	-2.4656687288305084	-6.559393176254237
O	4.9703302616627125	-2.7836888188305084	-3.7368330362542377
O	6.0403892016627125	-6.191549258830508	-2.2620184862542376
O	6.169720571662713	-5.9148713088305085	3.6302932737457625
O	4.386284311662712	-5.461809838830509	6.977042543745763
O	0.6927399116627123	-4.694825868830509	7.573928743745763
O	-1.1590540873372877	-7.253194908830508	9.682491263745762
O	-2.0687038783372875	-4.757035118830508	12.423558413745763
O	1.6609555916627121	-4.098761268830509	12.968423013745761
O	2.436528371662712	-7.819581498830508	12.714666713745762
O	-5.941162738337288	-6.1049618388305085	9.936226993745763
O	-4.932992668337288	-2.5192170288305085	9.028590963745762
O	-6.050618218337288	-3.1849445488305084	5.405068473745763
O	-3.9638192983372877	-6.292746678830508	4.858611573745763
O	-0.28106894733728766	-6.347707678830508	3.8989791237457623
O	2.0342099616627123	-9.369276048830509	4.398595603745763
O	4.658425041662713	-10.07620022883051	1.7531440837457626
O	1.364182761662712	-13.822520628830508	0.7139726387457626
O	-1.3311893773372878	-11.400796428830509	1.9388715537457626
O	-2.5724163383372876	-8.43362941883051	-0.038751922254237375
O	-5.746673838337288	-6.385251008830508	0.3774810887457626
O	-5.452014818337288	-2.5954477188305085	0.3361360217457626
O	-7.596015358337287	0.6211009301694915	0.5824352667457626
O	-10.706412978337287	0.17899453916949154	-1.4382853362542374
O	-11.600364138337287	3.8014419411694917	-0.6480081202542374
