27

O	18.278478725077964	40.16490720486553	49.50542197760473
O	18.18387793408833	39.61433776102413	50.74034850058194
O	17.3088495450638	38.62695816547319	50.46418825667302
O	19.332905557650637	39.124955332189025	51.21345609637647
O	17.760833178507465	40.58886501555902	51.577341601033666
O	18.67065015946059	41.31611724061802	52.26923940277021
O	19.836842909948025	40.672148472587544	52.67317975582817
O	20.425336049480514	41.44125530414317	53.73504426152796
O	20.758342374944608	42.648375977435336	53.3525840066543
O	19.776016216774483	43.33419061141299	52.73461238119249
O	18.943002960459527	42.57261239001082	51.88264815578159
O	22.162753735856228	42.67217007996738	53.39817118533644
O	22.763365355235884	42.946244925871646	54.58852183413933
O	23.124408591615058	42.5247981458186	55.83758077108469
O	24.27567957165908	43.208700212401524	56.180318608562324
O	23.988666288026078	44.56365117717671	56.200694275471314
O	22.815862956356955	44.98541759533416	55.66430686368028
O	22.650871052926828	44.340901036805604	54.50894582259482
O	21.52452129639879	45.30887866648382	56.37457767729052
O	21.871354136819498	44.84936312253686	57.60017222630224
O	21.126542984781462	44.67360301599541	58.73039924482042
O	19.936796853147488	44.36712870622316	58.144162241430294
O	19.730814787384023	43.79543485175251	56.84644542297821
O	20.36145163123956	44.60327667631526	55.94225463032784
O	21.808445322950224	44.37296075450318	59.968993560846975
O	22.916933187541616	43.74839032528724	59.86503370670114
O	21.71180489115379	44.94453028331877	61.25496531655736
