73

O	0.6406818572152174	-4.980563702108696	-0.33015940759347784
O	0.7570983472152174	-3.987092542108696	-1.244807861593478
O	1.1767178372152172	-4.717691292108696	-2.2969497615934777
O	-0.3872966357847827	-3.3556748721086955	-1.5191475915934778
O	1.629610057215217	-3.0848272721086953	-0.7409543275934779
O	1.1620471372152172	-2.0199438121086954	-0.046120938793477825
O	-0.0634478647847827	-1.4857322121086955	-0.43425632859347785
O	-0.15488383678478268	-0.15192211210869544	0.09299674370652217
O	-0.11537878678478264	-0.12796310210869544	1.401497678406522
O	0.9170582372152173	-0.8023543821086955	1.9459841484065221
O	1.2737208272152172	-2.0041958421086954	1.2916719784065223
O	-1.3947613257847826	0.29710058889130453	1.7983815384065223
O	-1.6445684107847827	1.6345295408913043	1.8392009484065222
O	-1.9016857227847828	2.7945909178913046	1.163726208406522
O	-2.6685327927847826	3.5881623678913046	1.9960759284065221
O	-1.9351749927847828	3.8571359178913047	3.139983038406522
O	-0.8032256015847827	3.1440060978913045	3.366262638406522
O	-1.0762335617847827	1.8666916558913045	3.099022058406522
O	0.6245001772152173	3.5380066178913046	3.0781000684065223
O	0.36328426721521734	4.6631852178913045	2.371510428406522
O	1.1896683172152174	5.475007997891304	1.6496506384065222
O	2.078531237215217	4.535102517891304	1.2258622684065221
O	1.843188567215217	3.1316001878913045	1.0581528384065222
O	1.3789643072152171	2.6524840378913046	2.2509712584065222
O	0.6761607272152174	6.7405495378913045	1.176145608406522
O	-0.5791377977847827	6.7902825078913045	0.9494443444065221
O	1.1885621172152172	8.051874007891305	1.263480628406522
O	-5.027639562784783	3.8460790978913044	-7.555819891593478
O	-4.638675342784783	7.640426237891304	-7.847008701593477
O	-8.345932302784782	8.376870757891304	-7.430869201593477
O	-9.475673172784782	5.695790617891304	-4.9897781715934775
O	-11.058544592784783	6.181225267891304	-1.581743471593478
O	-8.380868372784782	4.8481816378913045	0.6188278594065222
O	-10.600644972784783	3.5938178178913045	3.436589458406522
O	-11.952431992784783	1.1968456428913044	0.7834725514065222
O	-8.715482022784782	0.3807301308913045	-1.0369102515934778
O	-6.877807682784783	-0.6016279221086954	2.192917478406522
O	-3.5429539027847827	-2.5677863621086954	2.490033968406522
O	-5.6341739127847825	-5.7013182321086955	2.258815138406522
O	-7.124365942784783	-4.651027692108696	-1.0657354815934779
O	-3.789462592784783	-3.4971990721086956	-2.454180921593478
O	-2.447567662784783	-6.9775397521086955	-1.6096013715934778
O	-5.317617632784783	-8.615762702108697	-3.376637661593478
O	-1.1340224887847827	-7.442959802108696	-6.779382321593477
O	4.316502477215217	-3.3508587121086957	-7.331143881593477
O	5.9191182172152175	-0.047442886108695514	-6.265041161593477
O	3.061555827215217	1.7887564508913045	-8.147476531593478
O	0.5379826372152173	-0.17725759210869552	-6.086321621593477
O	2.568480347215217	0.45883105189130446	-2.9265373415934777
O	2.3934142272152172	4.129434687891305	-3.514455201593478
O	-1.2343774177847826	4.499570257891304	-4.713805101593477
O	0.05074040621521736	5.293148097891304	-8.248818981593477
O	3.0635143872152173	7.5118776178913045	-7.8246102515934775
O	5.347031577215217	7.847833847891304	-10.882140261593477
O	8.547524967215217	5.754116307891304	-10.374544861593478
O	10.919152107215217	1.0095138018913046	0.3743543024065222
O	7.784129067215217	3.1331878578913046	0.10771009370652217
O	6.532359987215218	4.485795017891304	3.3667783484065223
O	4.173130827215217	1.9464191878913044	5.076438698406522
O	5.347603497215217	-0.7939075621086956	2.8815055384065222
O	5.731559207215217	-4.150383862108696	4.705281598406523
O	9.299484507215217	-5.4118811621086955	4.594631058406523
O	8.332131887215217	-8.773826782108696	3.0709015184065223
O	6.713889997215217	-6.970532592108696	0.15489358840652218
O	-0.9452843717847828	-6.960948772108696	6.325089808406522
O	-2.834783752784783	-4.133184392108696	8.057523128406523
O	-0.7683128536847826	-4.9377957821086955	11.241422938406522
O	2.5599892072152173	-4.812034832108695	9.313908788406522
O	1.7046684072152174	-1.4305012221086955	7.714652818406522
O	0.6943609672152172	-0.08177476510869552	11.049355538406523
O	4.011832437215217	-1.3645178721086952	12.465284338406523
O	6.037264097215218	0.2559420028913044	9.691853148406523
O	4.199201277215217	3.5776769278913045	10.070320938406523
