71

O	1.7162088728596494	7.422746725473685	-0.1186315308771929
O	2.4565581328596493	6.3692080954736845	-0.6749929437771929
O	1.854885482859649	5.028873435473685	-0.4200318567771929
O	0.5316658548596493	5.282019435473684	-0.13610442357719288
O	-0.5707007121403508	4.751937315473684	0.40382021722280714
O	-0.5800151971403508	3.3758636854736843	0.5464576982228071
O	0.8598340228596493	3.031631395473684	0.32968586622280716
O	1.280972382859649	3.6477039654736845	1.545484618222807
O	0.38565369485964923	4.4835266654736845	2.312394548222807
O	0.3363435058596493	5.874510715473685	2.233744368222807
O	1.5587458428596492	6.491258715473684	2.580633468222807
O	2.5103996028596494	5.362146405473684	2.374898108222807
O	3.7043573028596493	6.041973565473684	1.868122118222807
O	4.121286262859649	5.058374085473684	0.9791522682228072
O	-9.641997837140352	12.678613805473685	0.6292759172228072
O	-12.73278865714035	10.505434225473683	0.04497375522280711
O	-11.03953025714035	8.987283115473684	-5.814943091777193
O	-0.6077659431403508	7.809431745473685	-12.506536891777191
O	-4.19473996714035	7.513634775473684	-11.068566491777192
O	-3.6333016871403507	0.7080108344736843	-10.881500291777192
O	-5.25538772714035	-0.8415339845263157	-7.819081081777193
O	-7.61896023714035	-1.9965642745263157	-6.525906241777193
O	-7.402704567140351	9.051301705473684	5.964688188222807
O	-6.867787777140351	5.8550787154736845	7.934611018222807
O	-4.926854267140351	4.669236335473684	10.969707608222809
O	-1.4678176371403509	3.1001200854736846	10.551063408222808
O	0.1944046178596493	0.5232646834736843	12.753152508222808
O	3.964267882859649	1.1555769194736842	12.261485108222807
O	6.756326462859649	-1.3662624845263158	12.576133508222808
O	11.87259314285965	-2.2889281345263157	9.641773388222807
O	6.7308848128596495	-5.029637684526316	6.940091638222807
O	6.610857832859649	-1.2123670345263156	7.243238728222807
O	3.005308682859649	-0.5974538845263158	8.324755018222808
O	-0.6059575071403507	-1.8510636145263155	8.212080248222808
O	-3.928522487140351	0.002174725473684358	7.848740228222807
O	-7.571935377140351	-0.6657991245263157	6.812335798222807
O	-10.319862357140352	0.7464641404736843	4.552477708222807
O	-6.749533727140351	-4.825476914526316	5.600052628222807
O	-3.456562897140351	-4.021425124526315	3.948271008222807
O	-0.06302458814035072	-5.0776574645263155	5.283581368222807
O	2.564277802859649	-3.1491221945263153	3.490413938222807
O	6.076140332859649	-4.452578624526316	2.748615818222807
O	9.271343352859649	-3.2348764145263154	1.010382248222807
O	11.90895894285965	-5.097887084526316	-1.027579005777193
O	11.19441584285965	2.1543525044736844	1.889518678222807
O	8.802705802859649	2.931325135473684	-4.044033751777193
O	10.81164984285965	4.229412425473685	-6.991929931777193
O	11.02320204285965	0.5804397224736844	-8.172847711777193
O	9.674694342859649	-2.2471994445263155	-4.686891851777193
O	6.614993852859649	-3.1772293445263156	-2.609525351777193
O	4.515940992859649	-6.185090584526316	-1.629840491777193
O	1.0136092428596493	-5.808412414526316	-0.07389378247719289
O	-1.0309532011403508	-8.511402114526316	1.628312608222807
O	-4.779361337140351	-7.778955134526315	1.212817928222807
O	-7.247685047140351	-9.364796994526316	3.604684668222807
O	-0.18783530414035074	0.23737368547368431	-7.070384901777193
O	-0.5663023921403507	2.0845928484736844	-3.850983431777193
O	-4.495686107140351	2.6791769954736844	-3.543148971777193
O	-3.941698057140351	6.2025137154736845	-1.964314361777193
O	-2.0913551371403507	9.112307775473685	-3.5258386017771928
O	0.6337013378596492	9.156387405473684	-4.894252501777193
O	-0.5270110441403507	5.812339605473684	-6.283415541777193
O	2.9929535928596493	4.5608695054736845	-7.231622831777193
O	2.964749252859649	1.4777947084736842	-9.369353491777192
O	5.3793094528596495	-0.3627190745263158	-7.122280621777193
O	3.1683436928596493	-3.137396174526316	-5.681792251777193
O	2.901088672859649	-6.873014814526316	-6.142936871777193
O	-0.5330176351403507	-7.449385094526315	-4.711450991777193
O	-1.2156594821403508	-10.617879994526316	-2.805244831777193
O	-4.972173727140351	-10.763882394526316	-2.0184201117771927
O	-10.972947857140351	3.4614857754736845	-3.608718381777193
