19

O	33.64630451963245	23.08624289045741	28.0909749973314
O	34.50825789078432	23.599065716124343	29.106992528038468
O	34.02986853334622	23.483975589583345	26.75519698161038
O	34.73042260777046	25.08922877916792	30.805766182755285
O	34.213832602179984	24.609187495321788	26.124349605994926
O	32.691794695930625	23.330169019257628	25.968630076508425
O	32.637627714967564	23.67703188135172	24.680477409871436
O	36.72077482394146	25.3406989127387	31.98143478851619
O	32.62149092138667	21.920873695684303	26.190219074536156
O	33.38795873379827	21.61303322417705	25.083346597525065
O	32.57272533553783	21.213723127788015	27.41704498100732
O	33.355913753137905	21.781492689291124	28.37191827379918
O	32.423367163214515	19.768718237015204	27.64704238616546
O	33.6238688330696	19.0824907369579	27.3937653059436
O	35.825267275669205	23.525810167975532	28.91746775905686
O	36.639570275345164	24.155702603154253	29.81821438155984
O	36.03669951036925	24.73341992618176	30.907481254874966
O	33.898100719984534	24.340344857552687	30.063955046417664
O	32.65719115182906	24.524875889644964	30.10369480683513
