30

O	-6.245500579140009	28.69788976526872	77.55851487986622
O	-2.260372541279896	32.911250312783665	78.75175782624427
O	-2.849619167897436	31.697280249835483	84.5715562271773
O	-0.36620317914541545	34.56279699010095	80.5639570045672
O	-5.041867987387812	30.103175433537032	79.87527311764941
O	-3.787322021979088	31.30021290171178	76.83679334799317
O	-4.444846907086999	30.883173312509424	80.86799589940053
O	-4.770776666185464	30.313220610710196	78.56089460386453
O	-2.5401076260984397	35.353653906529686	83.49880837799596
O	-7.634892321808919	27.123347407940138	76.99044729312948
O	-3.1698463770179037	31.861459846233295	79.1193320353726
O	-7.555230732990811	27.059469848560624	78.26740377688533
O	-3.8029755213811747	31.143821276100212	78.18281598492949
O	-1.0116164764702846	34.74120436978338	82.03476807771187
O	-5.199611888038896	29.68802773744556	77.46785858526884
O	-3.29272156351918	31.387491752606685	80.36707748824654
O	-6.754441343892596	28.05493398243077	78.65289903668172
O	-2.737406297769864	34.00710020769084	83.78138920470755
O	-4.630953811051859	30.326385768625638	76.4020120667338
O	-6.570308506715474	27.816652770268405	76.59682758548607
O	-1.7739356703975036	33.832986567564234	79.73775579584954
O	-2.5382694385796247	33.98970256872434	80.85238338383617
O	-2.7215074062109252	32.88695556245274	82.75206978607113
O	-1.7672885129196532	33.708008726310425	81.98627985121684
O	-2.152056628546868	33.97513717091935	85.06527073733847
O	-1.6598690458191072	36.26566478823537	84.2500449892661
O	-2.567582604638568	32.644921091488115	85.59824721883318
O	-2.774463139198808	35.04610405599743	85.91512397970945
O	-4.89653588628715	30.637750080932346	82.25018305450166
O	-0.6738869792138447	34.35610413996437	85.13000645863008
