71

O	2.6953952414644067	1.8136834184237287	-0.24411497937288118
O	3.4601908414644065	1.0362679734237288	-1.257901320372881
O	4.193888081464406	1.9271104074237286	-2.0107831033728814
O	2.4062021614644067	0.6125404334237288	-2.2855731733728812
O	2.3302966714644064	-0.7107686825762713	-2.015442103372881
O	1.0951551414644065	1.2320223484237287	-2.003637713372881
O	0.5028734464644065	0.7022506374237287	-0.9746397313728812
O	0.42473111046440654	2.043485257423729	0.7955370166271188
O	0.38755680946440657	3.204010177423729	-0.010222711372881221
O	1.7999723414644064	0.20018807742372868	0.8618690666271188
O	-0.7441335945355935	1.6500541654237288	1.0434043666271187
O	1.4326267914644066	1.1388895384237288	0.0586472166271188
O	-0.41570415393559346	-4.245204562576271	7.516464356627119
O	2.0944809314644064	-5.858306212576272	5.077995856627118
O	5.8776986514644065	-5.43225806257627	4.368665686627119
O	7.794527801464407	-2.2025127025762714	5.212556426627119
O	4.749475661464406	-0.7525525325762712	6.9426683366271185
O	6.447730921464407	-1.3219309625762712	10.34754477662712
O	8.552311481464406	1.6383417314237287	9.36095520662712
O	5.657102791464407	4.061890137423729	8.89782462662712
O	8.858076721464405	9.578489127423728	3.276546656627119
O	3.7290961614644065	9.993392537423729	0.8285618366271187
O	2.7271088414644065	7.835240017423729	3.9554531266271193
O	4.5562469614644066	5.951431837423728	13.235716076627119
O	7.027694201464406	-8.437402032576271	6.414197996627118
O	6.353070401464406	-12.146644062576271	6.071813366627119
O	3.7235786714644066	-13.244508662576271	3.5955347166271188
O	-9.017369748535595	-4.057201572576272	6.728335126627118
O	-5.807008668535594	-4.850155962576272	4.803478076627118
O	-2.9337724685355933	-2.6352794525762713	3.631055676627119
O	-0.9539677945355935	-5.424051012576271	1.946851146627119
O	1.8318439714644068	-3.1313303525762715	0.9065831966271188
O	3.7788869914644065	-4.381498632576271	-2.118052213372881
O	2.0702933914644066	-7.771747892576272	-1.9925532133728812
O	-1.1129163925355934	-6.0702957425762705	-3.1799924033728812
O	0.3728644304644066	-5.972261202576272	-6.725072403372882
O	-12.685501288535594	-7.0779363525762715	3.325560826627119
O	-11.582263088535594	-3.478075982576271	3.0153327366271188
O	-8.413730938535593	-2.7876479525762714	1.0186128666271186
O	-6.614371298535594	0.33276153642372874	2.161296296627119
O	-3.6966866185355935	2.2456762474237286	0.7069437266271189
O	-2.2877609485355936	5.3379654774237295	2.501374766627119
O	-0.8512807315355935	6.998558347423728	-0.6385086533728812
O	-2.7428929685355934	7.4627392674237285	-3.896882433372881
O	-1.4551290785355935	4.482541107423729	-5.831740633372881
O	-3.041434828535593	5.815781367423728	-9.08943184337288
O	-0.7961949355355935	8.83601797742373	-8.93521365337288
O	2.3778925114644065	6.750935327423729	-8.71774834337288
O	4.119254561464406	4.172252027423729	-10.95674322337288
O	2.5170656414644066	-1.0872175725762714	-11.69687332337288
O	0.8932870714644066	0.29905739242372875	-8.498961473372882
O	-2.4163064485355936	0.6591765914237286	-10.33494558337288
O	-2.9353619485355935	-3.0676978325762714	-10.44177069337288
O	-4.2065054385355936	-4.871200822576272	-7.428537043372882
O	-7.1520786585355935	-7.6875016325762715	-3.943159113372881
O	-9.484022528535593	-5.089430252576271	-5.386459783372882
O	-6.719728238535593	4.850026647423729	-1.3784740183728812
O	-4.958969278535593	8.204222257423728	-1.0061199783728814
O	-6.719676988535594	9.408096527423728	2.135706276627119
O	-3.673912228535593	8.936432787423728	4.352793146627119
O	-3.8285928985355935	7.144485727423728	7.725355306627118
O	-7.468843368535594	8.263380437423729	8.066423476627119
O	-8.275030478535594	5.655575667423729	5.439094376627119
O	-8.131657508535595	2.9671591974237286	8.13591153662712
O	-4.380379148535593	10.120520607423728	-10.868927423372881
O	8.895831371464405	-8.251146522576272	-5.552213803372881
O	7.5586920914644065	-4.690103982576272	-5.1088032933728815
O	8.120238441464405	-5.078480202576271	-1.378787384372881
O	12.021141911464406	-2.5582961025762714	-4.433424353372882
O	10.268475811464405	-0.3281855625762713	-1.8704628333728812
O	11.785082711464407	-4.014085522576272	-10.29334849337288
