20

O	-0.20826344254751872	-5.9671481506195745	-5.166768542546196
O	-1.6165095052771998	-6.028644048167864	-4.5923627216415115
O	-1.3994467368066559	-7.3684525538611085	-3.9139655290363073
O	-1.9737334880383155	-4.752473421567585	-3.5445695453381205
O	-1.321132054454072	-3.551132577046038	-3.884259072740498
O	-2.257848872921606	-2.6016866523373485	-4.450762983946622
O	-3.2255598471710325	-2.209579953792749	-3.768445907324275
O	-1.9484456859461938	-2.2002824079110574	-5.7630539168867845
O	-2.592479200770627	-1.0692374707460734	-6.167238799949429
O	-1.6518721242548966	-4.827584755080849	-2.1624453386402287
O	-2.492554458899477	-4.067092532174799	-1.19587784874241
O	-1.679066468786805	-3.3041841015886058	-0.36657446771846836
O	-2.886718826184553	-6.096294848018743	-5.809954531770794
O	-3.8162897685148827	-5.078445863500958	-5.995387846954436
O	-5.031250056032659	-5.459831926980011	-6.613504479785487
O	-5.129966928802365	-6.392468516753769	-7.655836523387235
O	-3.907231908348632	-6.9618144390133265	-7.77455401276163
O	-2.7463558661302647	-6.622852475098918	-7.0520865205761485
O	-6.268366748846286	-6.770709233182241	-8.325442282186163
O	-7.022967702300166	-6.002185794637498	-9.210336063367587
