31

O	36.71193368577338	-3.3109932307261207	-14.469219756236356
O	36.129692830232436	-2.000083830560195	-14.563557682100663
O	36.09646688910526	-1.6294485810156427	-13.267713005889537
O	37.05221176211168	-2.3681988481573883	-12.604973307338803
O	36.617627680699194	-3.5485530805208225	-13.060480792608107
O	35.21014573347098	-3.3376099441656164	-12.752903899912042
O	36.26529313337295	-0.4491477276198075	-12.780248604955858
O	38.018032325090644	-3.601512575942344	-14.714461660237248
O	35.17223604936674	-1.9900526476664206	-15.492107834275924
O	34.287718064210125	-2.364455500816235	-12.306753970243038
O	33.52435442632582	-3.730560209977173	-11.741725639725226
O	34.15631122587239	-3.7941035619178796	-10.555203211281183
O	35.23457847745477	-2.99012434529383	-10.468937673308893
O	36.40607754281203	-3.570103656703732	-9.859661858053197
O	36.59040552704132	-4.710252861031366	-10.65002240154871
O	37.87398872186258	-5.137772232652393	-10.617619869256535
O	38.80385014140056	-4.248740336785755	-9.927768384998586
O	38.59733842342995	-2.9345005672246107	-9.396354584287463
O	37.31016941128953	-2.502261669972456	-9.59660250968737
O	39.38728916577239	-2.3385519278702556	-8.354153779575213
O	35.606212762168184	-5.638392060262273	-10.876941142573159
O	38.16736861755826	-5.988239084742702	-11.651249714262429
O	34.99053882791177	-1.734242721331856	-10.516064502179105
O	39.55814970504717	-2.749536454105341	-7.033215914562242
O	39.71935448805927	-1.1186775076338438	-8.40518868160154
O	35.591766869936386	0.6659506514150442	-12.923142552522934
O	35.33066171030066	1.0687414051119553	-11.599478494860604
O	36.37277643550954	1.4334478396288977	-10.926736314809709
O	37.54128094835999	-0.08173598021393591	-12.265938556521066
O	37.464966423301725	0.54893519661749	-11.001064297534105
O	36.85891679221375	2.661622372078645	-10.755398513362232
