30

O	30.23237784700838	49.162055075993536	-7.329555310705501
O	29.359071957729256	49.6251504011465	-5.899385759304427
O	28.926497499148176	50.89661726279065	-5.649585973269028
O	28.05740037724897	51.11547101441356	-4.610259561946048
O	28.97095198297127	48.640272886843704	-5.036742924705117
O	27.95789280621617	48.92296761118313	-4.131259685240032
O	27.159062845050677	50.07576597894839	-4.2890302183480005
O	26.353776892862143	50.40875463834584	-3.1292688973671208
O	25.083460426767143	50.32449527907425	-2.9995720003291275
O	27.122954479161077	50.589532471009726	-1.8988421495098038
O	26.735934670488582	50.17783722856512	-0.6088033031988044
O	27.649129038889058	50.218395984610275	0.3440355311315825
O	28.688473859196463	51.15779282216747	-0.1152581300846075
O	29.310855710291527	51.15550630834192	-1.3135548375837636
O	30.239337911771983	52.19840321286718	-1.5074036373935886
O	30.837682431147165	52.205431895284676	-2.8021200194705025
O	28.314828633653804	51.127806902298964	-2.2851981741843783
O	25.4303761400836	49.864101850238484	-0.07901509255900618
O	24.206042371374743	50.18035303900139	-0.580089155444457
O	23.220307049877622	49.39974940087494	-0.13452214408684393
O	23.781009386489607	48.54454619222876	0.6846616804530121
O	25.074652416082067	48.946974131948046	0.8043221682036066
O	26.070388610570415	48.23329106997997	1.462056015182879
O	24.337669272370725	50.64686668521552	-1.85311915669803
O	24.780648716831045	52.109535855413476	-1.6720805080126353
O	23.839500632919602	52.258845634933294	-2.789940933495046
O	24.510535526580984	52.86100290541317	-3.745558209060597
O	23.076048352566467	51.4014165626245	-3.6998307659969116
O	21.730938320141014	51.843594205547284	-3.623940958915356
O	21.22250501322289	51.319753606000475	-2.284094488154321
