111

O	0.8092868043278691	0.40773659764549763	6.502188100880328
O	1.478605524327869	-0.7688133243545024	6.347885840880327
O	1.913966384327869	-1.0121444843545024	7.999649110880327
O	2.062277534327869	0.5987117176454977	8.491623830880327
O	1.339903744327869	1.1262034026454977	7.508986270880328
O	1.6440027343278691	-1.2758711843545023	5.010483710880328
O	1.314804584327869	-0.6123882243545024	4.000172280880328
O	1.7295845943278692	-0.5615734343545024	2.731144590880328
O	2.768166234327869	-0.22243495435450245	2.2034916808803278
O	0.8173736643278691	0.1280044656454976	1.8509534008803277
O	0.15884494132786908	-0.7350824143545024	1.0134570408803278
O	-0.6349658708651309	0.17962089864549768	0.21633583788032773
O	-2.100002305672131	0.12277044564549766	0.3902532148803278
O	-2.222572095672131	-0.6308121743545024	1.7542791238803277
O	0.9880590143278691	-1.9107720943545026	0.8910697948803278
O	1.6260063343278692	-2.6956070543545025	2.0304525298803275
O	1.320095074327869	-4.036059484354502	1.7585576478803278
O	1.8326739843278692	-5.188885924354502	2.236243280880328
O	2.689368924327869	-5.037941724354502	3.2861214908803276
O	3.1498625343278692	-3.783399044354502	3.470657370880328
O	2.919241804327869	-2.8861464543545026	2.5098769308803277
O	-0.6604525613721309	1.5163574006454976	0.29740241388032773
O	-1.2030127666721309	-1.3754392443545025	2.499955350880328
O	-1.138899857672131	-2.4005905143545023	3.409108010880328
O	-0.9742373126721309	-2.3131210943545026	4.788315760880328
O	-0.40165476767213093	-3.267278184354503	5.620854280880328
O	0.16626611832786908	-4.318039504354502	4.991918260880327
O	-0.664919876972131	-4.750289254354502	3.961899310880328
O	-1.1141180076721309	-3.7653428543545027	3.126803170880328
O	-2.053143335672131	0.5922259936454977	2.451911830880328
O	-0.6168097446721309	2.077402555645498	3.3796772608803276
O	-1.715828385672131	2.9232820056454973	2.856248380880328
O	-2.5039272256721308	1.8880222266454978	2.2455095208803275
O	-3.404354475672131	2.088673305645498	1.4727459948803276
O	-1.300607513672131	4.089398895645497	2.099322947880328
O	-2.526661695672131	4.621278575645498	1.4172891398803278
O	-0.630587133952131	4.908973165645498	3.1322851808803276
O	0.6148468643278691	2.4333647256454976	3.239501820880328
O	1.4181621543278689	2.0678428056454976	4.243422010880328
O	2.772418154327869	1.8115383336454975	4.442879250880328
O	0.9221879143278691	2.9608865556454975	2.214731290880328
O	3.734709774327869	0.7989513696454976	4.864059710880328
O	4.124702654327869	1.2193504256454977	6.088258910880327
O	4.906320574327869	-0.13508757435450225	6.517269220880328
O	4.563777254327869	-1.3350932043545023	5.327536430880327
O	4.159796784327869	-0.4340419743545024	4.543810630880328
O	4.580819454327869	-2.5870370943545025	6.086950090880327
O	3.4242714643278687	-3.288969444354503	6.5378795108803285
O	5.028388024327869	-2.4247569443545025	7.551007680880328
O	1.099717614327869	3.0572299056454977	5.346820520880328
O	12.450134394327868	-4.440152984354502	0.7307231298803278
O	9.310338234327869	-3.9812063743545028	2.6451045908803277
O	7.120792944327869	-4.897262854354502	-0.26369478911967215
O	7.656597784327869	-6.620626224354502	-3.697448609119672
O	1.7489094843278692	-7.138853964354501	-4.628639359119672
O	1.375880754327869	-4.614578264354502	-7.498373609119673
O	0.0820250073278691	-1.4002974843545024	-5.9169503791196725
O	-0.1593437486721309	1.8991059526454976	-7.760390769119672
O	-1.807194555672131	3.2505003056454975	-4.535701869119672
O	-4.934478355672131	1.1864759806454976	-4.572689139119673
O	-7.292227255672131	-0.13968563435450243	-7.197997929119673
O	-8.545619755672131	-3.556005744354503	-6.182188509119673
O	-7.227417785672131	-6.864087624354502	-7.5386769291196725
O	-8.011852465672131	-9.132498604354502	-4.630292629119673
O	-6.763605475672131	-12.574487604354502	-3.7212788691196725
O	-11.547926005672132	-1.9635638943545026	1.2044751781803278
O	-9.923483985672132	-0.18526735435450237	4.093676160880328
O	-6.295670165672131	0.8996518782700876	3.8930593308803276
O	-4.471175125672131	3.7771624456454975	5.492828200880329
O	-3.192782055672131	1.4205697086454978	7.978530140880327
O	-6.388935985672131	0.27231856764549767	9.231001200880327
O	-6.183415615672131	-3.0970498243545026	7.5917319608803275
O	-8.986066685672132	-4.328159524354502	5.391079900880328
O	-7.733847095672131	-8.543736054354502	8.524621880880328
O	-4.942275485672131	-9.903214904354503	10.656384890880327
O	-2.154814695672131	-8.220800294354502	8.969316000880328
O	-2.921271795672131	-10.051558104354502	5.652808190880327
O	-3.213367235672131	-13.321466404354503	7.403456850880328
O	0.14058441032786906	-12.896225704354501	9.092123310880329
O	1.978248434327869	-12.392276904354501	5.817550630880328
O	1.638524904327869	-11.958699804354502	-0.2088479691196723
O	-3.162250585672131	-10.731660704354502	-2.776231979119672
O	-2.974194075672131	-7.286888904354502	-4.386056979119672
O	-3.104166705672131	-6.047862634354502	-7.9533201791196735
O	-4.190651335672131	-2.3885249443545025	-7.8694622791196736
O	-10.96762780567213	3.9792189056454976	-6.253994229119673
O	-12.088876505672133	0.42522322364549764	-7.003895889119672
O	11.728350394327869	-0.6263349343545023	-11.998125549119672
O	12.10978219432787	-1.7387223243545025	-8.393759749119672
O	1.772332384327869	17.125942195645496	-4.228881509119672
O	1.7863083043278691	13.401963995645499	-3.637088759119672
O	1.0770501243278692	9.922460555645499	-4.890914449119672
O	3.421485934327869	7.540951635645498	-6.739671359119672
O	2.726795554327869	4.457675265645498	-4.565879389119672
O	4.513583534327869	1.1149676876454977	-5.189211949119672
O	2.515386104327869	-0.4215468943545023	-2.630717129119672
O	4.112689674327869	1.6693413066454976	0.22375044788032783
O	7.444652934327869	1.0997784906454977	1.4819927878803278
O	8.825372864327868	4.643364195645498	2.549156000880328
O	6.217126444327869	10.534296695645498	3.424201230880328
O	5.784615894327869	6.313440605645498	15.878966750880327
O	8.24742998432787	8.491408005645498	13.914565250880328
O	6.1811590343278695	12.973833695645498	8.043455730880329
O	2.908726784327869	12.807179595645499	6.102923550880329
O	-2.129550315672131	10.831972415645499	6.739488420880328
O	-1.4796318556721308	12.915407095645499	1.599312046880328
O	2.210303174327869	12.920813595645498	0.6812960608803278
O	3.4726109743278695	9.487304735645498	-0.5701009291196721
O	6.299655644327869	8.702644385645497	-2.9452657391196726
O	6.708703394327869	5.048993165645498	-1.922545809119672
O	9.22756283432787	2.3493371856454974	-2.6992846191196724
