65

O	1.0149906651295457	-1.5524073112920465	1.8101656356000004
O	0.6284475551295455	-2.4338449812920464	0.8517959436000004
O	0.4065071941295456	-1.8750395912920466	-0.3838848903999996
O	0.06843210612954564	-0.5841519012920465	-0.5724566903999995
O	0.38286442112954566	0.26765463770795356	0.5004819476000004
O	0.9268586851295456	1.4203003567079535	-0.0637520403999996
O	1.6600480051295459	2.1892672587079534	0.8703734096000004
O	2.073572985129546	1.6288557347079535	2.0972573546000004
O	0.9622611051295457	-2.0697664312920465	3.1475151196000004
O	1.4797099351295455	0.1738748627079535	4.3051978996
O	1.4250419851295457	0.5206054467079535	2.6441158096000006
O	0.6090385451295456	-0.2566557992920464	1.7988673466000005
O	-0.32078954687045436	-2.5654389212920465	3.3443193196000003
O	-1.0457993508704544	-3.1154680612920465	2.3221958996000005
O	-2.2319282648704544	-3.8106720612920464	2.5383170796000005
O	-2.6620556648704543	-3.6980385212920464	3.8217717296000004
O	-1.6925096848704544	-3.7344763912920467	4.8192200196
O	-0.7010901488704544	-2.7774093812920464	4.5887645596
O	0.24686999612954563	0.23227543270795353	5.1223372296
O	2.2089955851295455	1.3936575767079535	4.9224220096
O	2.406888325129546	-0.9845833112920465	5.0026077396
O	-0.4540055915704544	7.740149498707954	-9.9281616004
O	-2.849818254870454	6.595325688707954	-7.1799160203999985
O	-3.8127593248704543	9.674871128707952	-0.5022892803999996
O	-6.485729794870455	7.0249196887079535	-1.0261738003999996
O	-5.449610944870455	3.5632548087079536	-2.1394086103999994
O	-7.902215634870455	0.9504829937079535	-3.3119922803999997
O	-6.560180214870455	-2.5292473412920464	-2.5112276603999995
O	-7.181074144870455	-5.741732031292046	-4.551480440399999
O	-7.821737334870455	-9.077860041292046	-2.8143497803999993
O	-5.891143064870454	-12.893013981292047	-6.281748050399999
O	-2.6633808648704544	-10.591282381292046	-1.6299140803999994
O	0.3073737771295456	-8.579984331292048	-2.7112893603999995
O	3.464374815129546	-10.145355281292048	-4.0933045004
O	5.930096675129545	-10.886189381292047	-1.2834441103999996
O	6.306554985129545	-6.091336501292046	-3.4306818603999996
O	5.628292375129545	-6.197740231292046	0.3035529446000005
O	9.367422585129546	-6.065227911292046	0.8688275126000005
O	9.789008745129546	-3.0433991512920464	-1.4012035703999994
O	6.980143585129546	-1.1634017412920463	0.34937467160000046
O	8.717974455129546	-2.024043381292046	3.6393321296000005
O	11.973041045129547	-0.6510198312920464	2.2751393996000004
O	10.326152845129545	2.6317314087079535	1.3169160932000004
O	8.554404535129546	2.9514132687079537	4.720356429600001
O	11.939405645129547	2.6484508287079533	6.4808685696
O	13.373357545129545	5.766094768707954	4.8532426696
O	2.9649254451295457	10.057209048707954	9.1427413596
O	0.47507679712954565	7.145603368707953	9.3360498296
O	-1.4099714838704545	4.521153958707953	7.289970719600001
O	-5.102070074870455	4.070347988707954	8.0771480096
O	-7.013712134870454	0.9797425047079535	7.094663369600001
O	-10.676695254870454	0.7036608257979535	6.3365433996
O	-12.872203954870454	-1.6222030912920462	4.240663809600001
O	-10.562663054870454	-2.770494961292046	1.4225584496000003
O	-9.005640394870454	0.7070180404679536	1.4364367336000003
O	-5.795825554870455	2.3309532687079537	2.6582108096000003
O	-5.336013344870454	5.9957640587079535	3.4410908196000003
O	-1.7847411348704543	7.231037698707953	3.5269072196000004
O	-1.3593348788704542	10.251182598707953	5.8108806296
O	7.562784345129545	6.453543338707954	-6.140700560399999
O	6.641092235129546	0.9983118757079535	-6.6420075904
O	3.148246765129546	-0.3242681612920465	-7.4984460704
O	1.0869483351295455	-4.1783982212920465	-6.3302715604
O	-2.6787597748704544	-5.009098761292046	-6.429544480399999
O	-3.867391324870454	-1.4069259412920463	-6.783920310399999
