69

O	-1.5041340863227277	-0.7583456836863639	-2.8859623021136365
O	-0.5228808013227276	-1.618935709686364	-3.4099246621136365
O	-1.1748630073227275	-0.5712585061863639	-1.6001314221136365
O	-0.28169069782272765	-3.793196069686364	-1.3245960961136363
O	0.1902342956772724	-3.113599959686364	0.37871544788636347
O	0.7260811036772723	-1.0066498486863638	-3.2838244021136362
O	0.11670052067727238	-0.3658029286863639	-1.1308573141136364
O	-1.6122499463227278	-3.5190876396863637	-1.2317338881136364
O	-1.0293565693227276	-2.552851359686364	0.6180854478863635
O	3.3751478836772724	-1.6402503496863639	-2.2082585721136363
O	0.9140773936772724	-3.708329719686364	-0.6890076051136365
O	3.0512150636772724	-2.981312989686364	-2.0269574121136364
O	0.9963520236772723	-0.7990271586863639	-1.9172070021136365
O	-1.9645507163227276	-2.6901565996863637	-0.2843708811136364
O	2.3136946536772722	-3.257721349686364	-0.9164766921136365
O	4.814002773677272	-4.071966169686364	-1.2791057961136365
O	6.342064493677272	-3.711788329686364	-2.8420899221136366
O	4.184973183677272	-3.511054879686364	-2.5114718821136366
O	2.3582311036772725	-1.874929159686364	-0.6055711871136364
O	2.4187509836772723	-1.003945724686364	-1.6402777001136364
O	6.007366373677272	-4.600595859686364	-1.8124438921136363
O	5.366225713677272	-2.766720179686364	-2.8957199621136365
O	4.008423213677272	-4.764988069686364	-0.6265523451136364
O	7.557977043677273	-3.4540668496863636	-3.1166805421136363
O	-3.2213390163227276	-2.3450256796863638	-0.04454758811363646
O	1.4645281936772723	9.121724370313636	4.264966027886364
O	2.1984009836772724	12.439846940313636	2.5325904078863637
O	9.943052983677273	8.745467810313636	4.678342937886364
O	8.959213663677271	6.025144010313636	2.2400130678863635
O	12.041236783677272	3.9611300703136365	2.9213836178863635
O	10.861901383677273	3.6637479303136367	6.496467067886363
O	7.127052333677272	3.4554556403136365	5.795695757886364
O	7.837779753677273	0.9168231403136361	3.2751036778863636
O	5.769547023677272	-1.740742849686364	1.5757650378863635
O	5.393173343677272	-4.099307629686364	4.601866807886363
O	4.240249943677273	-1.166029447686364	6.601141117886364
O	1.5811690336772724	-0.21637409868636387	4.059949607886364
O	0.38344641667727236	-3.8274516496863638	4.005614417886363
O	0.2300549816772724	-3.7948440796863636	7.693863447886363
O	-1.7881195863227277	-0.6147512494863638	7.781201307886363
O	-4.243569086322728	-1.9356380096863637	5.2450798378863634
O	-4.504083596322728	-5.205788669686363	6.9829124278863635
O	-9.479452896322728	-4.291558459686364	6.665422357886364
O	-8.439596066322729	3.885875670313636	0.9998599278863636
O	-6.315706786322727	1.277252900313636	-0.5134341431136364
O	-5.609352146322728	3.662222160313636	-3.3517789421136364
O	-4.7415488263227275	6.474917560313636	-0.9106252541136364
O	-2.3793346963227275	4.149714660313636	0.8463239078863636
O	-0.8743034933227276	3.2012394503136363	-2.5229465721136366
O	-0.05257605632272766	6.6200115203136365	-3.7000516821136364
O	1.1885859436772723	7.663736840313636	-0.25881617411363644
O	-1.8370271363227277	10.024316340313636	0.09205901588636356
O	-2.6849012063227278	11.348789940313637	-3.3524890921136365
O	-3.5871274963227275	0.3127837593136361	-10.746190752113636
O	-1.2845553303227277	2.7168710903136364	-8.912938502113636
O	2.407875203677272	2.8130314403136363	-9.849821912113637
O	4.127066683677272	0.1458757143136361	-7.966211112113636
O	1.0141653836772724	-1.692026079686364	-7.066077072113637
O	0.6785491736772724	-5.520190309686364	-6.672816642113636
O	-2.015958996322728	-7.093879729686364	-8.799537262113637
O	-3.415378566322728	-8.812043159686365	-5.752755182113637
O	-3.9247229063227276	-5.465679489686364	-4.020964322113636
O	-5.490422446322728	-3.9902352896863635	-7.2017828021136365
O	-7.760548146322727	-6.982989379686364	-7.407951282113636
O	-8.950855976322728	-6.083845169686364	-3.9651698421136365
O	-4.401051546322727	-8.957270009686363	3.448190407886363
O	-0.2584945181227276	-10.976298159686364	1.7828282778863636
O	1.0880370036772724	-9.460604579686363	5.010617367886364
O	5.5036012936772725	-10.698431459686363	3.3751007078863635
