19

O	27.429282124440117	-6.981065389614026	28.476243707500558
O	28.996813632318798	-3.913845098408393	27.30789038018462
O	27.885020548351264	-5.256985415518868	29.55226641745436
O	28.494900271940914	-5.58908560067808	26.144828230637557
O	32.26233914834334	-7.809420350779359	30.299594153434008
O	33.3819387012686	-5.503759136050557	27.123737668431307
O	31.60624283209466	-8.371001487842355	29.266101800644474
O	32.87365951076621	-6.557790343325972	26.485574974089523
O	31.704326787736555	-6.546846761481538	30.493722835183405
O	32.6523017091713	-5.328038276299052	28.319362425656383
O	30.156852589879907	-8.309334066813495	29.31615914876715
O	31.473030269023536	-6.468138790768682	26.279013708325657
O	30.545771343442045	-4.925202683359898	29.28402327262789
O	28.31311166907953	-6.511294480100464	29.186397115177975
O	29.3947462888011	-5.123935778516228	26.79923438054237
O	30.47779396354826	-6.175252078234336	29.980394515732737
O	31.309238428662212	-5.164523037553479	28.138209607474586
O	29.67531392006366	-7.017635686966501	29.199721324222235
O	30.58796547605189	-5.912210440782946	27.204414723846376
