58

O	0.9530180462727271	3.0904389136931814	2.1997602443863635
O	-0.8972037847272729	5.062511073693182	2.4575840343863637
O	-0.36585506509327287	4.994053743693182	-3.156625015613636
O	0.18085273427272708	7.451435353693182	0.5439419993863637
O	1.0868866762727272	7.430505863693182	-1.3358217456136363
O	0.3999513182727271	3.5668056036931817	-1.4139804256136363
O	-1.2309267787272729	5.160019763693182	-0.1995228796136363
O	1.2329139962727271	3.1015825336931817	0.8725188453863637
O	-1.060725042727273	3.894690823693182	1.7437895443863636
O	0.07014046927272716	7.046911213693182	-0.8154420556136364
O	0.23911211327272708	4.898613343693182	-1.8458554156136364
O	0.3386998532727271	3.4607576936931816	-0.060471267613636304
O	-0.8200614317272729	3.9752439136931814	0.4079005918863637
O	-0.34153337062727285	5.706908563693181	-1.0630498956136363
O	9.306951506272727	-0.47434733630681847	-4.878664595613636
O	11.822948736272727	1.1459418356931816	8.104792184386364
O	8.507926666272727	-7.560221866306819	2.409679864386364
O	7.884592366272727	-8.169166906306819	-2.968984315613636
O	4.848766356272727	-5.918303786306818	-2.729374985613636
O	2.661513926272727	-8.638492116306818	-4.116867715613636
O	5.174861706272727	-9.216861016306819	-6.957776405613636
O	4.809741576272727	-5.565517766306818	-7.996143805613636
O	1.047313456272727	-5.352557446306818	-7.4593284956136365
O	-3.4638241237272727	-2.328572076306818	10.421755734386364
O	-5.341557633727273	0.7125017736931818	11.721111404386363
O	-8.261601483727272	-4.507106936306818	0.8358827733863636
O	-8.775960103727273	-0.8702341763068182	1.8548302343863636
O	-7.297151433727273	2.674383866693182	2.020345604386364
O	-8.160127953727272	6.173043733693182	3.151684994386364
O	-7.529222343727273	7.627428703693182	6.606318424386364
O	-3.9753262937272726	7.634116503693182	7.894809674386364
O	-10.862293563727274	2.7529886536931816	-7.199038685613636
O	-14.939894663727273	-6.366094286306819	-4.290345855613636
O	-12.875096763727273	-3.5221122663068183	-2.875057095613636
O	-9.185996923727274	-3.289856946306818	-3.7585383156136363
O	-8.055704153727273	0.2803744136931816	-3.100186005613636
O	-4.440625043727273	-0.09069135630681835	-1.9188543456136362
O	-3.0431985137272726	2.9064844736931814	-3.8624963256136358
O	-4.743200613727273	1.6471773875931817	-7.045098655613637
O	-3.230592053727273	-1.8592511663068183	-6.814104755613636
O	0.13049822027272712	-0.9788773663068182	-5.332378125613636
O	1.213558646272727	2.1543701666931816	-7.242027755613636
O	4.8632144362727265	1.3476151396931817	-6.705802565613636
O	4.276707256272727	1.8118918132931816	-2.967539655613636
O	4.233836686272727	5.463540293693182	-3.5125475156136363
O	7.7794674762727265	6.166532173693182	-2.401567045613636
O	7.296210156272727	4.178301643693182	0.7581194863863636
O	4.011742766272727	5.901863913693182	1.4148867673863637
O	5.663064886272727	9.329256083693181	1.1681829873863636
O	8.306811436272726	8.376366733693182	3.707475254386364
O	5.729982756272727	6.902938073693182	6.0943311843863635
O	3.762447016272727	10.158560593693181	6.040846764386364
O	6.989012886272727	-2.429738086306818	10.232762534386364
O	5.359506046272727	-0.9589317163068183	7.115604514386364
O	2.087261336272727	-0.4548118363068181	9.088256744386364
O	1.855431566272727	-4.826351696306818	5.428215334386364
O	-1.7505863837272728	-3.7441820163068185	4.417895434386364
O	-3.691409823727273	-8.223397806306819	-4.355064875613636
