16

O	86.16857804842282	68.28163661210881	-10.229812876325582
O	87.38962579582329	67.60637646268067	-9.965445582330458
O	88.42324129458363	67.24597493144452	-10.824426047484183
O	89.51570629640771	68.19827166081515	-11.033318452000664
O	88.82213663306322	69.36864817431668	-10.278876624699514
O	87.77668710747547	69.5480129528948	-11.372562372054073
O	86.32207221353362	69.32788354160984	-11.212990577516855
O	87.74768735013926	73.42606274497649	-12.079512037878986
O	87.39081960551347	72.99088326602353	-10.798840694188796
O	87.35198120995912	71.63438745294309	-10.743852408374241
O	88.25221987451556	70.9434870309182	-11.553528994065061
O	88.05178939838028	71.327033690396	-12.9064331341699
O	87.44759481743512	72.53504908911361	-13.13342942136872
O	87.64499358797042	73.54589856533028	-9.523524357862172
O	86.61822387721693	73.18176392077388	-8.575021400532224
O	85.86308686878446	71.92778384723469	-9.038250486569735
