84

O	-7.18842561901	7.165401018544715	-3.6959483764285705
O	-8.319256999010001	5.914621998544715	-2.4137751564285708
O	-7.16160626901	6.098352398544715	-2.806049616428571
O	-5.88500671901	5.720790108544715	-2.314819806428571
O	-5.48633516901	4.542957568544715	-1.5877040464285708
O	-4.32198674901	3.687524318544715	-1.520993592428571
O	-3.55945602901	3.128525748544715	-0.36443628642857084
O	-2.40384105001	2.2584264785447146	-0.49528844242857084
O	-1.16487408801	2.5176481785447145	0.2863700135714291
O	-0.04525939901000009	1.5459428805447146	-0.0857764604285709
O	1.12185597099	1.6830601945447148	0.8345458135714292
O	2.32498971099	0.8080420723447146	0.6367343535714292
O	3.5076299309900003	1.6237797565447147	0.19878145357142918
O	4.55035342099	0.6930523005447147	-0.3311257874285709
O	12.952682640989998	1.0152894785447146	-3.357337256428571
O	12.13826234099	-0.6935921914552854	-6.58620701642857
O	9.781464840990001	-3.292177221455285	-8.05992437642857
O	7.127266200989999	-5.177669471455285	-6.0859230464285705
O	4.33456451099	-7.653335401455285	-6.848255376428571
O	1.1522797809899998	-7.869758041455285	-4.756338206428571
O	1.2425896509899998	-11.637071801455285	-4.327789006428571
O	-4.10371215901	-9.346607701455286	-0.2335016204285708
O	-9.07314317901	-7.250301701455285	4.431443263571429
O	-12.86197785901	-4.0311724214552855	0.45082543357142923
O	-13.03100275901	-2.1444995714552855	-8.743981196428571
O	-13.31625315901	-2.9735845614552856	-4.980773536428571
O	-11.854798659010001	-0.3409532714552854	-2.827108036428571
O	-8.569108559010001	-1.9551255914552852	-1.662387978428571
O	-7.88536447901	-4.058182051455285	-4.667916346428571
O	-4.6867912590100005	-2.2569594614552857	-5.668216096428571
O	-1.6137781580100001	-3.7577514614552854	-7.159496126428571
O	1.68554317099	-2.276597041455285	-6.110726336428571
O	4.06048633099	-1.7243740414552853	-8.982182366428571
O	6.9920937509900005	0.18382958154471463	-7.513461426428571
O	8.254823570989998	1.8671038165447147	-4.334043296428571
O	10.136081840989998	5.166534078544715	-4.557783726428571
O	11.38603244099	6.458330248544715	-1.1950842744285708
O	7.5453572609899995	6.8916945985447144	0.2111123535714292
O	6.17707914099	7.3769723085447145	-3.2053821964285705
O	3.98125368099	4.500224118544715	-4.343249846428571
O	3.2187281609899996	3.5426929485447145	-7.91524688642857
O	0.22795921098999994	1.2321205595447147	-8.237221796428571
O	-2.47079682901	-0.05602594145528539	-10.600843636428571
O	-6.15279705901	0.1373157965447146	-9.713847976428571
O	-9.08627029901	-0.9735149614552854	-11.795807976428572
O	-11.102357289010001	2.1958924985447146	-12.088694176428572
O	-1.7432491460100001	5.733724678544715	-10.035940586428572
O	1.0269037509899999	7.4870235085447145	-8.02355235642857
O	0.5103314809899999	8.202180768544714	-4.256948566428571
O	2.59344718099	9.738259808544715	-1.537369810428571
O	2.94647231099	8.181137588544715	1.9047098835714291
O	4.49747757099	10.777019068544714	4.1874239835714295
O	7.934004610990001	5.899917918544715	13.583870023571428
O	10.12419544099	4.587103038544715	10.75382282357143
O	7.684705280989999	1.7640878675447147	9.81452032357143
O	4.55657206099	3.879028488544715	9.762083923571428
O	3.6020147809900003	6.2663323085447145	7.01494580357143
O	0.6917527809899999	8.474591148544715	6.548838013571429
O	-1.4467493283100001	8.917180198544715	3.491039583571429
O	-3.66088699901	12.012951798544714	3.0709685535714293
O	-7.31836902901	11.304969198544715	3.1121272835714295
O	-6.77477128901	9.577870818544715	6.638233413571429
O	-4.89260735901	6.394058918544715	6.8785799035714295
O	-1.8263180060100002	4.772202158544714	8.207880153571429
O	0.37596923099	2.463945908544715	6.28659937357143
O	2.43211190099	0.17731314554471467	8.419397833571429
O	5.21159122099	-1.9167892614552853	7.228137183571429
O	5.04347244099	-5.125398341455285	9.297096923571429
O	4.27556155099	-7.091885291455285	4.386096773571429
O	2.22144315099	-4.0591296814552855	4.999041083571429
O	-1.18899151801	-3.059503741455285	6.20802058357143
O	-3.30453404901	-0.03964490145528532	5.687823993571429
O	-5.73127345901	0.8950324744147147	8.385558683571428
O	-8.75618157901	3.0944086785447142	9.042123223571428
O	-8.01364594901	-2.716228531455285	7.398533843571429
O	-6.20672053901	-4.302584761455285	4.388556243571429
O	-2.8649930990100003	-6.0401733614552855	4.25334602357143
O	-0.6693523570100001	-7.2901515814552855	1.4033066035714292
O	2.1703842509899998	-9.636773201455284	0.9089070035714291
O	4.53038991099	-7.858867371455284	-1.5454234684285708
O	1.76197554099	-13.204598901455284	5.781125663571429
O	0.78156012099	-11.807668801455286	10.755624923571428
O	-2.88800748901	-12.119512401455285	9.714564323571429
O	-4.272082199010001	-5.430175481455285	-12.648319076428571
