28

O	3.4273204970767868	32.16261411919165	8.905155777157407
O	3.880033981794866	31.274649171530733	6.827577672571
O	5.125564426613113	29.81529717783026	6.401059349473384
O	2.7612372710869915	33.28034249334505	6.819822134709899
O	4.145612637802749	31.215514078189102	9.571557343873058
O	3.3109774752353562	32.196723688330906	7.578981627615127
O	4.772571315397781	30.468244240778674	7.4989504989665665
O	4.650832033426148	30.16088877989473	8.816443407229894
O	5.903548368857308	30.332890770148765	5.281462125824532
O	7.176819715483336	29.583035185974953	5.555841916288156
O	7.91009125950071	29.188063803289594	4.3755847338526825
O	7.248300402384287	28.162223866553926	3.7939749716601483
O	5.996125533145342	28.709260318283516	3.3976725856636936
O	5.41503425072309	29.637576409610045	4.21819716111427
O	5.554638878004696	31.202370859911042	2.643400598855253
O	2.6685307849580235	33.25132095526406	5.392343056786787
O	3.6799292980223863	33.48163517827357	4.5045652649479475
O	3.393596317026163	33.6747697623306	3.1448128036673397
O	2.0870463116736024	33.63701257210336	2.6501231620290735
O	1.313270568318062	34.30464230193952	3.60597650515085
O	1.5655192268352511	33.984715145174256	4.938501221829672
O	2.018849838916842	33.98743574960304	1.2185158680447277
O	2.667022895066827	33.20878304267758	0.45451527006939596
O	1.0500504717466805	34.7609138177078	0.6339512203842643
O	4.588007075859454	30.727478599966325	3.6135644362079278
O	6.446096004861534	31.635070923427058	3.5030211269147955
O	5.090774749741033	31.68781001913467	1.502544510768062
O	6.452257516614816	30.33186511278388	1.999116746867859
