131

O	-8.71965852328788	3.3460000392984846	-0.7310285225606066
O	-8.282693603287878	3.0167995332984847	0.5831095834393936
O	-6.895817233287879	2.791922598298485	0.9843611934393937
O	-6.791947083287878	2.036875556298485	2.0076822034393933
O	-8.747264813287877	4.229062069298485	1.3348922934393936
O	-9.188489213287879	5.259352899298484	0.2935386634393935
O	-8.557925823287878	4.748525509298485	-1.0196207055606066
O	-6.062919613287878	3.864947799298485	1.2508028634393935
O	-4.753101993287879	3.654288009298485	0.8671432034393933
O	-4.292434333287879	2.374139264298485	1.0793223434393933
O	-3.2404763232878784	2.402553476298485	1.7464341534393935
O	-4.800157113287879	4.353423919298485	-0.40188189356060655
O	-5.352907323287878	5.613576799298485	-0.3654005275606066
O	-6.118983543287879	6.0151293092984846	0.6881417434393935
O	-5.135068723287878	6.723000949298484	-1.0811883985606066
O	-6.044727013287879	7.333673119298485	0.6870010234393935
O	-5.442071733287879	7.786881079298485	-0.3980028805606065
O	-4.649722073287879	1.0676092492984848	0.9027024434393933
O	-3.3764001832878785	0.3607330292984847	0.4529486334393935
O	-3.4656900332878786	0.8687571392984847	-0.9024862615606065
O	-4.292721433287879	0.3761052092984847	-1.6231595145606066
O	-3.7652243832878787	-0.9966832107015153	0.8142186334393933
O	-4.952300903287879	-1.1491139507015151	-0.07463883656060655
O	-6.107498343287879	-0.25013957070151527	0.007340853439393502
O	-5.640859023287879	-2.321186230701515	0.4769326334393935
O	-3.6986162032878784	2.2216720812984847	-1.1338911961606066
O	-3.5748277532878787	2.8083646842984846	-2.4902029965606065
O	-2.3756377450878787	2.289980829398485	-3.050485086560607
O	-1.6162978762878786	2.348213690298485	-3.9970971065606067
O	-4.872685053287879	2.077894054298485	-2.8371051765606063
O	-5.929209783287879	2.255015691798485	-1.9644430105606066
O	-1.8135738682878786	1.0749792892984849	-2.4337952065606068
O	-1.3004065932878786	-0.19029949070151542	-2.6906917265606065
O	-1.8797583002878786	-1.249786590701515	-1.9403086495606066
O	-2.7352270852878786	-2.411341760701515	-2.0210750675606066
O	-3.9470527232878787	-2.5896584607015156	-2.6227195465606066
O	-2.7297193612878785	-3.4311599507015154	-1.0271859975606066
O	-4.943505623287878	-3.530883280701515	-2.3849503165606065
O	-3.5815700432878788	-4.4939676307015155	-0.8890057185606066
O	-4.439276883287879	-4.711938490701515	-1.9178798115606064
O	0.1339399467121214	0.2597947092984847	-2.3307924965606066
O	0.31229391671212126	1.5868487842984846	-1.8530988205606067
O	-0.5223784032878787	2.5594760202984848	-1.3937926685606066
O	-1.3269744052878787	2.955840815298485	-0.23507081356060655
O	-2.023405814287879	4.329735859298484	-0.38046144256060654
O	-2.1503151172878785	5.218659269298485	1.0084281834393933
O	-3.2296303872878784	6.392860069298484	1.5356456334393935
O	-0.01710056328787868	3.930300659298485	-1.4643784725606066
O	-0.5588546532878786	5.002105589298485	-1.2862488083606065
O	0.5675544767121212	3.9905824092984847	-2.6921988165606066
O	0.43501129671212135	4.920605169298485	-3.7734071865606067
O	1.2959997667121215	6.099309309298485	-3.9479610165606065
O	1.2444245767121211	6.326536629298484	-2.6748762265606065
O	-0.9719922932878786	5.365728819298485	-3.3477323865606063
O	0.9733346967121213	7.413366319298484	-4.430048226560606
O	0.3544212467121213	8.628189869298485	-4.0854161765606065
O	0.5602797367121215	9.473797359298485	-5.225207076560606
O	1.736285326712121	9.261333889298484	-6.014732746560606
O	-0.4946584732878787	8.506694409298484	-2.9542510165606064
O	-1.2911895432878786	7.889165999298484	-2.0040933475606066
O	-1.0154905232878786	7.438499179298486	-0.8026090585606065
O	-2.5278780732878787	8.524415679298485	-1.7011333295606066
O	-1.4102798332878788	8.364322489298484	0.0692628034393934
O	-2.5868187192878787	8.784506009298484	-0.3952560745606065
O	-0.16635186328787865	10.218318129298485	-5.952064506560607
O	-3.2559516542878786	-11.356328220701515	5.623501413439394
O	-5.838883523287879	-11.225256220701516	2.8836799834393934
O	-8.61370534328788	-10.348161320701514	5.380884743439394
O	-4.947005533287879	-6.754913370701514	7.6268231634393935
O	-5.416494083287878	-4.179117290701516	4.666257763439393
O	-2.5796311252878787	-6.139826460701515	3.0504264834393937
O	-0.7495207332878786	-9.316838220701515	2.6944914034393936
O	1.3301430067121212	-8.422466020701515	-2.7563472865606062
O	4.883291186712121	-7.627788720701515	-1.9525582795606065
O	5.0534888567121214	-3.7680279107015155	-2.2643180865606065
O	8.125884816712123	-2.1311598207015154	-0.9663656775606065
O	6.8048169867121215	1.1708600092984847	-2.0840379695606064
O	6.633755206712121	0.3350673492984848	-5.773267616560606
O	8.978865816712123	-1.2222095107015152	-8.340190676560606
O	6.9326631467121205	-3.2858788407015154	-10.764641996560607
O	1.3660982667121213	2.258382842298485	-13.473373156560607
O	-0.9398827432878787	4.154108519298485	-11.230610356560607
O	-0.8669370232878786	3.708773669298485	-7.650255866560606
O	-2.5505095642878786	6.006847719298484	-4.719417056560607
O	-5.227847253287878	5.716588979298485	-5.116478326560607
O	-6.079456313287879	5.849260329298485	-8.500816926560606
O	-5.834118613287879	2.1704477315984847	-9.202090776560606
O	-3.712138723287879	1.4196374142984847	-12.195461656560607
O	-2.6993854852878787	-1.1073200607015155	-14.825312856560608
O	-5.724201953287879	-3.9915549207015153	-18.562009456560606
O	-6.279926323287879	-3.4108258007015153	-14.823095556560608
O	-8.559547423287878	-1.0443337007015154	-12.993765856560607
O	-10.21686750328788	-2.4126373507015155	-7.989069656560607
O	-7.677082523287878	-4.926963760701515	-8.996201506560606
O	-10.36401359328788	-6.901089440701515	-10.778855486560607
O	-9.577192133287879	-8.384940020701515	-5.470683006560607
O	2.1692272367121213	-7.097750880701515	-7.2330314765606065
O	7.9423705167121215	-4.345469120701516	-6.4316152365606065
O	10.591968016712123	-4.344011300701515	-3.7239343665606066
O	11.41822311671212	-0.6772738307015151	-4.154343026560607
O	10.51976011671212	3.582994299298485	-10.241544666560607
O	10.005349416712122	0.6565948992984847	-12.611324756560608
O	8.177612916712121	-10.383130820701515	9.130684943439393
O	4.471551346712121	-9.457952220701515	8.859166943439392
O	5.825175946712121	0.8285424392984848	2.4775137434393937
O	4.507037086712121	-2.713314910701515	2.7904322134393933
O	1.9599354567121212	-1.5551335807015154	0.18215009343939337
O	0.22302152671212117	0.48661446929848484	2.6419793334393935
O	-2.0126716642878786	-0.36056771070151505	5.401395763439394
O	-1.8943452332878787	2.4385793122984847	7.718187803439394
O	0.7772455567121215	4.579734529298484	9.473317043439392
O	0.7411184567121212	8.191542399298484	8.177695853439394
O	2.5528966367121217	10.808379719298486	10.135305343439393
O	-15.077626883287877	8.574420809298484	7.218582543439393
O	-12.12996084328788	10.844997099298485	6.330387123439394
O	-9.78025018328788	10.119075729298485	9.116395543439394
O	-4.734072983287879	2.958620872298485	12.391797843439393
O	-2.8380062992878785	6.211318609298485	12.454493643439394
O	-3.8898862232878786	9.054281759298485	10.166712343439393
O	-0.2307033732878785	12.381208179298484	6.253179913439393
O	-0.5238368732878786	13.029097279298485	1.3991953834393933
O	5.1114892667121214	12.019655239298485	2.8643940634393936
O	5.262311396712121	10.098415199298485	6.103655093439393
O	4.373721426712121	6.475204909298485	5.532903613439393
O	5.264743986712121	3.656276799298485	7.915944063439394
O	2.790694106712121	1.1517472592984848	6.500340213439394
O	1.8511197367121213	-2.295845410701515	7.652738533439393
O	0.40447173671212155	-1.2253358407015154	11.030583843439393
O	3.8754554167121213	-0.10203058070151538	12.145166843439393
O	5.853923456712121	-2.714278030701515	10.166445343439394
O	4.0422285567121214	-5.707545150701515	11.668208643439392
