80

O	-3.3340859910277785	2.4853431725000004	-4.168182429305555
O	-4.4536809930277785	2.1060234725000004	-4.8275828093055555
O	-3.1415749820277785	2.2484397925	-2.7883278493055554
O	-5.350869140027779	1.3772929195000003	-4.128792379305556
O	-2.9510446780277784	-0.6502424274999996	-3.9339537993055553
O	-2.8131478000277785	2.0437052525000006	0.7189654406944446
O	-2.1118075700277785	0.7945540145000004	2.4380122706944447
O	-5.731155880027778	-0.3546506594999995	1.7639216806944447
O	-5.015248160027778	1.6364992125000004	0.5609773306944446
O	-2.7531985900277784	-0.5381861674999995	-5.317684109305555
O	-2.9383505390277787	2.9678914025000003	1.7149234106944444
O	-2.523277010027779	1.7634681225000004	3.376833360694445
O	-6.906816750027779	0.32464281650000043	1.7316690406944444
O	-6.265039630027779	2.0674230725000005	0.4052349306944445
O	-4.0406438220277785	1.5159843265000004	-2.0804101553055556
O	-4.7027723900277785	-1.9828622074999995	-4.240380919305555
O	-2.6324315700277783	0.7958484165000004	1.2101381306944443
O	-4.860484120027778	0.46441293400000044	1.3176003706944446
O	-5.006175380027779	1.0250094175000004	-2.8770191993055554
O	-4.172209880027778	-1.0774614574999997	-3.3963189393055555
O	-3.8369209938277784	-0.7448591574999996	-6.176164299305556
O	-4.784816451027779	-1.5836588974999997	-5.586782329305555
O	-3.3798371110277783	2.8154395725000008	3.0448076106944444
O	-7.266057580027779	1.3457341185000005	0.8598360606944446
O	-8.219671650027779	-2.240849667499999	0.09025976069444441
O	-7.081601820027778	-2.0852343975	-0.5538495213055554
O	-3.5110863430277783	0.6518226445000004	-1.0569674293055555
O	-5.299548300027778	-3.1993214775	-3.8183892893055553
O	-5.3418392200277784	-1.0656243174999995	-7.731860099305555
O	-5.360508270027778	1.7439464225000003	4.263588710694444
O	-8.933301410027779	1.2972388895000004	-1.0556318393055555
O	-6.311344370027779	0.7037120325000004	-2.3009725093055557
O	-4.900947500027779	-1.0992161374999996	-2.1567551033055556
O	-7.017091780027778	-1.2489545074999995	-1.7042988003055555
O	-3.6679434740277785	-0.2671505154999996	0.9878450206944445
O	-3.7810577051277785	-0.4455345834999995	-0.3375733643055555
O	-5.8703981400277785	-0.32613888749999953	-1.5514388313055556
O	-6.6198258400277785	-3.5338331575	-3.7718382693055554
O	-2.2557566100277784	0.3374365365000004	-1.1719045251755555
O	-4.551715788027779	-4.0429647975	-3.2653171993055556
O	-4.301560143027778	-0.15957294949999956	-7.333398209305555
O	-5.871723340027779	-1.3146598674999996	-6.429786919305556
O	-4.678119752027778	2.7384602925	3.585291120694445
O	-8.420008980027779	0.9856318345000004	0.1526142806944446
O	1.0087372099722214	12.752567472500001	2.923018260694444
O	-2.6267138700277783	9.3261917125	4.827948160694444
O	-3.9969856470277785	10.8468591725	1.6674251906944444
O	-7.504173560027779	9.5126380125	1.8383680606944446
O	-6.162749770027778	6.1507586625	2.4286216806944445
O	-4.947689880027778	5.8117213325	-1.2832661673055554
O	-6.320196020027779	6.9651375325	-4.5299921393055556
O	-2.8612292280277787	7.656520152500001	-6.148177199305556
O	-0.42685796002777865	10.0299522025	-4.763525029305555
O	2.4309355699722217	7.4753443525000005	-5.374698929305556
O	0.9415831599722213	5.2421038825	-2.6060933793055554
O	0.3189587599722219	7.8660577125	-0.08249558930555545
O	3.9262276299722214	9.1688008025	-0.8635082143055555
O	5.232142749972221	5.7335331025	-0.21415560830555547
O	3.3384196699722213	5.6622665125000005	3.167424210694444
O	-1.6440193600277784	-8.3366537275	-5.316651089305555
O	-1.5749817100277785	-4.6242224274999995	-5.739968949305556
O	1.8557996199722218	-4.5800467475	-7.670993739305555
O	3.1266354199722213	-6.7292035875	-5.019188999305555
O	1.8336148499722218	-4.9625433275	-2.2126109693055556
O	2.915397609972221	-1.4284115274999996	-3.4905639493055554
O	6.209173779972222	-2.756110917499999	-4.127746949305555
O	6.296863079972221	-4.0080486875	-0.5373276483055555
O	5.022852609972221	-0.6753319774999995	0.7173459706944445
O	-4.106652389027778	-11.7653703275	-1.4432383133055555
O	-5.914402760027778	-9.4553739275	0.9122658806944446
O	-3.8825495030277786	-6.8196151875	-0.5851148993055555
O	-0.6388714600277785	-8.025446797499999	0.018366580694444412
O	-1.7586910400277787	-8.9637839775	3.5928710306944445
O	-2.8175985520277784	-5.4386376575	4.149080320694445
O	0.48615084997222135	-4.0104754675	2.9267749906944442
O	2.4567470099722217	-6.4083750175	5.035549120694444
O	0.35774255997222193	-5.4196403175	8.051626670694445
O	0.8570709899722213	-1.6995289174999997	7.467933340694444
O	4.377208599972221	-1.6749388674999997	6.798277500694445
O	4.192100979972221	-12.4186932275	5.486420790694444
