52

O	-2.0936547845964286	-1.5995625373857139	0.5287149175792858
O	-2.8147981135964284	-2.567387659385714	-1.347088135420714
O	-2.6652141055964287	-3.423909649385714	-3.2671590454207142
O	-4.671231772596428	-3.7289161293857136	-0.8867991294207141
O	-2.3572500661964284	-2.764132959385714	1.2517843645792857
O	-3.3583626615964284	-2.3595109493857143	-2.675558885420714
O	-4.798157992596428	-2.7860310393857137	-5.403586595420714
O	-2.2790641335964286	-2.9017889993857136	-4.508048445420714
O	-1.8313484315964286	-1.850491911385714	-0.7494362134207142
O	-3.1292037065964284	-3.7081955793857135	0.6418858445792859
O	-3.2707955765964285	-3.7041405593857144	-0.7059133004207141
O	-2.7265764575964284	-3.9110075293857136	-5.505654685420715
O	-4.161744382596428	-4.038174699385714	-5.166250315420714
O	-4.438609542596429	-2.417980679385714	-6.737096815420714
O	-3.1097304145964286	-1.7830516843857138	-6.945260645420714
O	-6.208915602596429	-3.038254849385714	-5.385406645420715
O	-6.706792722596428	-3.925398909385714	-4.296748425420715
O	-4.516407692596429	-4.664232399385714	-3.888580635420714
O	-3.2812249145964287	-4.652459429385714	-3.044811435420714
O	-2.1907018925964286	-0.46678658438571397	1.3669870645792859
O	-1.7198396355964285	0.30117469061428603	2.189291154579286
O	-1.4465870595964285	0.7709004706142861	3.536744554579286
O	-2.0207840625964284	-0.09001009438571395	4.490832404579286
O	-3.3708313565964287	-5.353555259385714	1.737780024579286
O	-7.198078372596428	5.5367208306142865	-1.480398245420714
O	-4.980133682596429	6.963016550614286	-4.154359025420714
O	-2.0114744255964285	7.253461790614287	-1.8626716154207141
O	1.4095246474035714	8.253546490614287	-3.224570635420714
O	5.108678937403572	7.599331520614287	-2.511645945420714
O	7.622908627403572	3.072518120614286	-1.0148199454207143
O	3.7850667374035716	3.332351940614286	-0.31630206964071417
O	1.5030836174035715	2.987558790614286	-3.369248745420714
O	-2.3317076028964285	2.8096427506142865	-3.2155664754207143
O	-5.228008512596428	2.453048170614286	-5.650877465420715
O	-7.380706102596428	0.7750297806142861	-2.917967475420714
O	-6.716229272596428	-0.953801502585714	0.4444548665792858
O	-7.192986392596429	1.480406140614286	3.345475294579286
O	-9.095793312596427	0.139436391614286	6.3192775045792855
O	-7.4021918125964286	-1.701865744385714	9.176080604579285
O	0.09697537740357154	0.897919190614286	7.610160344579286
O	0.40686941740357163	-2.712315539385714	6.227624094579285
O	0.0766285674035716	-4.624331509385714	3.039785024579286
O	2.8074852274035713	-5.597072849385714	0.6736113395792859
O	4.821399087403572	-8.726783629385714	1.3870328145792858
O	3.548437737403572	-11.621477989385713	-0.6935427264207141
O	4.768251577403571	-11.107412089385713	-4.229239315420714
O	5.3421270174035715	-7.352663099385714	-3.939235335420714
O	3.287158247403571	-4.4493229593857135	-5.298472765420715
O	3.7663119574035715	-1.818501166385714	-2.700239795420714
O	4.686510387403572	-1.508940850385714	0.9112206045792858
O	8.219673927403571	-0.16581429138571402	1.8757375945792858
O	-1.7197816065964284	8.786314760614287	5.568697494579285
