62

O	-2.6917648773125	-0.010221218243749997	-3.8482032504687496
O	-1.8109859374125	-1.2077564342437501	-1.82848313046875
O	-4.8194029403125	-1.48597141324375	-0.79606706146875
O	-3.7317954503124997	-2.9151969232437502	0.67261740353125
O	-5.312562140312499	-4.70626667324375	1.26287418953125
O	-2.1037006203125	-1.86579816324375	1.95214805953125
O	-3.9901986303125	-0.47282994554375	-0.32331369246875
O	-4.0080977403125	-4.10461272324375	1.47557242953125
O	-4.6299573103125	-7.05215720324375	4.622519799531251
O	-5.2258102403125	-6.13334492324375	1.03648329653125
O	-4.4482106903125	-2.7596455532437503	-0.47848064346874997
O	-4.817468570312499	-1.4204656532437498	-2.33408140046875
O	-3.2385757703125	-0.52661884124375	0.79967165253125
O	-3.7960768303125	-1.73950837324375	-2.9760536404687503
O	-2.4875940203124998	-2.29704499324375	-2.4288509804687504
O	-1.9043908283124997	-0.05452744724375003	-2.7292345704687504
O	-2.8793640603124997	-1.8838399432437498	0.83153568553125
O	-0.7532993703124997	0.64291924675625	-2.7068895004687503
O	-5.1072818703125	-6.87694885324375	2.3135629195312504
O	-0.18247178031249978	0.7887630967562499	-3.96642058046875
O	-4.4551309303124995	-6.21263955324375	3.4648058795312497
O	-5.7385029903125	-6.95090091324375	6.710838839531251
O	-4.6066572803125	-8.43535410324375	4.11849412953125
O	-5.9432037903124995	-8.84482629324375	3.5635178795312497
O	-5.1664024603125	-4.92960745324375	3.7326959495312497
O	-5.9808985203125	-4.60887478324375	2.5291211695312503
O	-0.9464692463124998	0.6520126267562499	-5.13522030046875
O	-2.2864580043125	0.42242016875625	-5.11013760046875
O	-1.7829786613124998	1.08460449675625	0.69876298153125
O	-5.9708460103125	-6.92328690324375	5.20274353953125
O	4.3312955196875	-7.33127310324375	-1.27095122046875
O	6.0496469096875005	-6.76256250324375	2.03018806953125
O	6.3069228196875	-3.0159902732437502	1.44501112953125
O	7.6407080196875	-0.87179501524375	4.313740159531251
O	2.7238011496875005	2.83167510675625	3.56270625953125
O	2.4691190596875003	-0.66763404024375	4.78392358953125
O	2.0335133896875	-4.01248777324375	2.7642472095312502
O	1.5701877696875002	-7.72571918324375	3.5534704395312504
O	-0.3333454203124999	-8.22846285324375	0.26556488753124996
O	-2.0526513133125	-6.14485470324375	-2.4283122904687504
O	0.19111512968750022	-4.9670098232437505	-5.30329990046875
O	-1.3206901583125	-4.72532675324375	-8.804603740468751
O	-3.5406335903125	-1.7981661532437498	-9.73387473046875
O	1.6355533296875002	0.25478066575625	-9.05064095046875
O	-0.7754861703124998	3.27226005675625	-4.72754974046875
O	-4.1426878503125	3.05225543675625	-3.1080656604687498
O	-6.104106840312499	1.3608594567562502	-0.70012095346875
O	-6.4518492903124995	2.4720394667562497	2.91000685953125
O	-9.457094870312499	4.69641310675625	3.6980371995312504
O	-12.288034590312499	2.3974195567562497	4.79430905953125
O	-11.529143420312499	1.52089678675625	8.377137879531249
O	-7.7660887203125	1.99326601675625	8.157696379531249
O	-4.8656595503125	-0.41714773244375003	8.212651919531249
O	-2.4204928063124997	1.32406950675625	5.96370480953125
O	-2.2498538503125	4.26581083675625	3.5039249695312504
O	-0.7806223433124998	7.703001456756249	4.43192798953125
O	0.9411628096875	10.02285360675625	1.92464453953125
O	10.5478277096875	5.79505094675625	-1.16566209046875
O	10.1037536096875	3.22008960675625	-3.8830086004687496
O	7.145032139687499	1.03359833675625	-4.74350092046875
O	7.1725844096875	0.6325902667562501	-8.556529660468751
O	5.2162170096875	-1.1805003102437501	-11.21677289046875
