54

O	-8.262411720571428	6.84712647914	-5.0835597590857144
O	-7.186448390571429	6.08968570914	-4.424511239085715
O	-7.164162760571429	4.73618279914	-4.186726429085715
O	-5.931528930571429	4.2698263791399995	-4.545161689085714
O	-5.253680660571429	5.22211184914	-3.9064017190857143
O	-4.014310050571429	4.95878055914	-3.185487559085714
O	-3.985856620571429	3.56391673914	-2.7740042390857145
O	-2.9859342715714288	2.61552993114	-2.826741229085714
O	-2.9447453645714288	1.58164595614	-3.827575579085714
O	-3.406789890571429	2.16293398694	-5.0919802090857145
O	-4.720862850571429	1.98766532214	-5.692834739085715
O	-4.8936426605714285	2.57482371114	-7.0437267790857145
O	-3.0801332785714286	3.3900299791400004	-5.239557959085714
O	-1.5861793805714286	1.0875022491400002	-3.571104049085714
O	-1.1685991705714287	1.47042779314	-2.2011456490857144
O	-1.8756447135714287	2.73987519514	-1.9647374340857144
O	-5.103455030571428	2.97566061314	-2.6127215190857145
O	-5.766755900571429	6.25397199914	-4.659944379085714
O	-1.4043125505714287	0.60365590914	-1.1948875440857143
O	1.4747697694285709	4.30717957914	5.1441948409142855
O	-1.5205541405714287	4.28901193914	7.490321810914286
O	-4.644613930571429	5.73413608914	5.797100580914285
O	-6.9394614905714285	2.8341191181400003	6.934473610914286
O	-9.164828630571428	2.96606543714	3.7704699309142855
O	-9.44469089057143	-0.8816867308599998	4.346168290914285
O	-8.965970610571429	-2.57170815086	0.8914742409142857
O	-6.402293320571429	-5.32160689086	0.8272042109142856
O	-5.944156110571429	-7.492329150860001	-2.2579672590857145
O	-2.183865244571429	-8.39727687086	-2.7678646590857143
O	9.687868079428572	-1.4493110008599999	-9.638673859085714
O	7.212000959428572	-1.5773985008599998	-6.705195579085714
O	7.522642579428572	1.4116142211400002	-4.333166579085714
O	4.605688259428571	2.57612092314	-2.1318321690857145
O	5.391974999428571	4.93554538914	0.8288700509142857
O	2.4307865194285716	7.39043501914	0.6178996909142858
O	0.5793217694285713	9.188855609139999	3.4306290709142857
O	3.2714415494285713	11.928134129140002	3.4254413009142857
O	5.694625729428571	6.49532103914	-4.922359639085714
O	6.8177855794285716	4.2816181791400005	-7.875133399085715
O	3.909747169428571	2.03455181624	-9.209328999085713
O	3.5106398494285713	0.5782678291400001	-12.717814039085713
O	-2.8075921755714286	-5.40384994086	-6.901705609085715
O	-5.534035490571428	-3.78786343086	-4.881165789085714
O	-3.8449626105714287	-2.10625384086	-1.8835251510857143
O	-4.9181975605714285	-1.23313381086	1.6889298509142858
O	-4.344627800571429	-2.4759245308599995	5.138319330914285
O	-1.3486328305714288	-0.81168710086	6.901246690914285
O	0.16764082942857117	0.4287980791400001	3.6194658709142855
O	4.020855769428572	0.35418562914000007	3.2965436809142856
O	5.845696149428571	-1.22161771086	0.27617247091428565
O	5.803895869428571	-5.3815792908599995	2.9588501209142857
O	2.6708224094285713	-4.33578042086	4.906367600914286
O	-0.6953420205714287	-5.58261908086	3.393193660914285
O	-1.9143789815714287	-11.702333570859999	0.5423958209142856
