37

O	34.2737943714432	-31.229190640782793	-2.232403020854221
O	33.797716067098364	-32.54038249781167	-2.2320375727987165
O	35.26009217619892	-30.89212103564725	-1.352869230335128
O	34.73589716366806	-33.484700388572726	-1.9373909560177631
O	35.165026092860984	-32.42538657219938	1.55640287367293
O	38.13517108468328	-32.617382765304065	-3.2823264569232578
O	38.800480723994404	-30.60106072801407	-2.367497024570036
O	33.88079295857301	-31.949354696894062	1.2175121020776498
O	37.04414021533527	-32.03108754362648	-3.9164399699259005
O	37.78119874089744	-29.9680091901031	-2.9963751220842947
O	36.102869347152215	-31.92027002350412	-1.0140024718052791
O	34.51085697421429	-34.528578393525706	1.0874642169385311
O	39.17593902069184	-31.92050267383376	-2.6774596726944724
O	35.81236049105598	-33.253281288994074	-1.0148589113757365
O	35.60453121936559	-33.67806718036708	1.2427791871649214
O	32.93148543868247	-32.84983321681508	0.8262429446755977
O	33.206773227258516	-34.14134817595033	1.1353148470646552
O	37.10489064516939	-30.653073295060402	-3.9679305898908366
O	37.5369000668765	-31.655254868020926	-0.6706099022082974
O	34.79359362263931	-35.797126051464105	0.5104905031694091
O	32.377384275023886	-30.572398060616532	-3.4514158280749387
O	32.66320573125718	-36.515855893073194	1.5046487919879226
O	36.13170041761481	-28.519688210338593	-4.597151136741698
O	39.71529181379636	-32.506910941999976	-1.3750682236280554
O	36.894262686014116	-34.2996160256092	-0.8166499640156288
O	36.91744709490292	-34.39003974781261	1.4695168712322995
O	38.3752507212648	-35.95519001847207	0.2951074318428067
O	31.662265635575334	-31.51360509043571	-2.715329422398043
O	38.530903561631455	-32.70669305827703	-0.5995998271727195
O	37.20459886420643	-35.073105608675036	0.26097886371222817
O	34.46127971284668	-36.2996678472688	-0.5602638969170048
O	37.8039223788061	-30.767539519713935	0.13870800673784883
O	33.75514331883263	-30.470055774288586	-3.2788175908608808
O	35.40993841990523	-36.62047765881198	1.4172141258043076
O	32.3864810348315	-32.542104523495084	-2.176494911941542
O	32.28217714346203	-35.1785099950139	1.1818901435615474
O	36.486982229247424	-29.84930509269501	-4.87908835765499
