70

O	-2.5156936146060604	-2.8102119054939396	-0.8548192579090919
O	-1.6986889646060606	-3.0918349414939397	-1.9498382709090918
O	-2.4727251546060605	-3.6437733254939397	0.22374832809090817
O	-1.4980881896060607	-4.42031208549394	-2.181451060909092
O	0.4601837053939394	-4.98300796549394	0.8781955290909083
O	-4.5234731546060605	-6.50151137549394	-1.386586367909092
O	-5.056518644606061	-6.21041267549394	0.8441597890909083
O	0.6016935753939393	-3.5995946554939398	0.6397618590909082
O	-4.746620864606061	-5.15777085549394	-1.6707639649090917
O	-5.3309244946060605	-4.9031755954939396	0.6183051490909082
O	-2.1555572346060607	-4.94591834549394	-0.06953862790909182
O	1.3638472853939394	-5.42428255549394	-1.1367301289090919
O	-4.875835444606061	-7.135436525493939	-0.1997067169090918
O	-1.4180484146060606	-5.392396865493939	-1.1269188029090917
O	0.5775556353939394	-5.92591287549394	-0.10052171290909184
O	1.1634568953939395	-3.1925668464939396	-0.5366259259090917
O	1.8469231153939396	-4.15359276549394	-1.2064190329090918
O	-5.434484544606061	-4.48629060549394	-0.6801969558090918
O	-2.6984476946060605	-6.07229075549394	0.7557799390909081
O	1.3640886053939396	-6.188609005493939	-2.335836820909092
O	-2.8287923446060605	-0.6362269354939396	-1.6851797259090917
O	3.4532358853939393	-5.00724151549394	-2.8681058809090922
O	-6.406170024606061	-2.4433568044939395	0.2010512770909082
O	-3.8850267246060604	-8.16589076549394	0.3364478490909082
O	-1.3128544946060607	-6.8718667154939395	-1.4505215369090918
O	0.4438203153939394	-7.4306216554939395	-0.09510304290909177
O	-0.43350986560606064	-9.19343040549394	-1.5362558379090918
O	-1.5086172086060605	-0.6874393554939398	-2.125183630909092
O	-2.6451791346060607	-7.454087815493939	0.3240311790909083
O	-0.2985763496060606	-7.76046595549394	-1.2568470569090917
O	0.9396150653939394	-5.94141866549394	-3.461987310909092
O	-2.6136773646060605	-6.01031511549394	1.981874529090908
O	-3.4007084546060606	-1.7630219404939398	-1.1006037619090918
O	2.1259376653939395	-7.319806285493939	-2.1947154909090916
O	-0.9837572966060606	-1.9345722604939397	-2.329690960909092
O	2.7891753353939395	-3.9319511454939398	-2.204310590909092
O	-6.1901270546060605	-3.3629415584939397	-0.8387968519090918
O	1.0802172253939393	1.2115260945060604	-17.967178670909092
O	-4.005897104606061	7.1564218645060595	-9.848905340909091
O	-6.947716434606061	4.411417704506061	-6.407756630909092
O	-5.7621196046060605	1.93439118450606	-9.034456940909092
O	-8.086994894606061	-0.8967057254939397	-7.897946480909092
O	-6.831133744606061	-0.4555158154939396	-4.322241770909092
O	-3.7225627046060605	-2.4941019390939396	-5.206091410909092
O	-1.8377514846060605	-4.73680839549394	-7.546355320909092
O	1.1899397653939392	-2.6106110605939397	-8.295777690909091
O	1.3901710753939396	0.6998681745060602	-9.978107730909091
O	4.031886225393939	2.0539034545060604	-7.590214520909092
O	1.5859983953939394	1.49447150450606	-4.676672830909092
O	-1.1769067436060605	3.35990132450606	-6.494504540909092
O	-1.1869022166060605	6.86847288450606	-2.910491880909092
O	4.7776871953939395	-6.57255050549394	6.233182759090908
O	4.359338145393939	-5.43275320549394	2.7176424290909083
O	7.756239675393939	-3.65187002549394	2.618681639090908
O	7.115985525393939	-1.9595302614939398	5.855428149090908
O	3.7736821053939393	-0.8329165854939398	4.918044779090908
O	4.909180245393939	0.5242904845060603	1.416615079090908
O	7.612028145393939	2.36441290450606	3.1662311290909084
O	5.091465095393939	3.9855805145060605	5.552782699090908
O	2.8183610353939397	4.89584341450606	2.652586699090908
O	0.8671097553939394	-7.43714615549394	10.331101829090908
O	-2.5098089046060608	-6.880415065493939	8.657907409090909
O	-0.7796042806060606	-5.13575927549394	5.870204749090908
O	1.0460080853939395	-2.7437248244939396	8.004451909090909
O	-2.2101423746060607	-2.0802862504939394	9.88629972909091
O	-3.9319755246060604	-1.4153440954939398	6.680702299090908
O	-1.2091584856060607	0.9093527945060602	5.359572339090908
O	-1.5694736046060607	2.84085629450606	8.55610731909091
O	-5.001347034606061	3.8739630745060607	4.366167349090908
O	-2.6358025546060606	6.751365514506061	5.332991469090908
