12

O	-17.38495600002755	-0.21253740172762803	4.029053069949217
O	-16.73946209434662	-0.7124536845186428	3.0968456002988525
O	-17.52890990832699	-0.8843734838064847	1.9349727466153188
O	-15.311297619830327	-0.6045974925455861	2.756293264655967
O	-14.267315262816526	-1.4027940830038865	3.0588932946627754
O	-13.02057419786997	-1.2209845557780954	3.7728889185384302
O	-11.648184681998899	-1.3101282948479243	4.117796678997641
O	-11.311827064417127	-0.6589051163669442	5.308944963617989
O	-11.75798875550396	0.541910401375129	4.735936028960939
O	-12.87058095889406	0.08785663483848083	3.988880155634384
O	-13.481745815658108	0.7353799419903095	2.9075160044846866
O	-14.910959746006501	0.5843722168104055	3.2879680085690834
