23

O	-9.666978633742623	54.35836819037739	12.925951878081463
O	-9.106944267477537	55.4976950866585	12.812029558078958
O	-9.347604868359202	56.11570593193652	11.486919878122919
O	-10.6749912196662	56.42216096740659	11.43151041848066
O	-11.206342940953586	56.94195329546921	10.252900426180524
O	-12.2683447404355	57.6995462955777	9.841880043493562
O	-11.993612013475065	58.01538157589652	8.548968904511021
O	-10.722618399551797	57.7821320042526	8.341322560333511
O	-10.399243629706707	56.73153132328877	9.1365090452225
O	-9.587906427648827	55.632814352402	9.229265137880002
O	-8.898931539350954	55.268240587342234	10.459887550918818
O	-7.801513049359773	55.469428128283596	13.224024847674585
O	-6.991290362952928	54.269338197897405	13.467725956077205
O	-5.775498033900567	54.33523682465809	12.785050719819909
O	-7.683981858594633	53.08597986029292	13.186522613665467
O	-7.45269168226622	52.214982145070664	12.091243979268118
O	-6.6627247218325465	52.95484909037052	11.147858926626451
O	-5.4672928017825	53.3034929110474	11.881095482563996
O	-4.059674448081395	52.89500796495041	11.669139730918861
O	-3.2888135139192602	52.56325945580278	12.740252814957135
O	-2.038439234795385	52.72366238505845	12.386842724939045
O	-1.9995996732446164	53.72944099129862	11.568977822128307
O	-3.27146421380933	53.92495232187986	11.212232340533347
