67

O	-2.710204844860465	-1.5698680144260466	2.9326576526744184
O	-1.4414056371604653	-1.5027104344260467	3.084082822674419
O	-1.0865541248604655	-2.1071240944260468	4.375654662674419
O	-1.2924994070604654	-3.435484014426047	4.343591742674419
O	-1.3090776136604654	-4.1054849344260465	5.583991282674418
O	-1.9897532598604655	-3.282755744426047	6.437265062674419
O	-1.6797083528604655	-1.984558354426047	6.725744802674418
O	-2.8079855748604654	-1.2721430944260468	7.463659652674418
O	-2.9984099148604653	-1.540400544426047	8.805769942674418
O	-3.3449997948604655	-0.4490314844260467	9.675277302674418
O	-3.5627437148604653	-2.7181011244260467	9.379846312674418
O	-0.9336975208604654	-1.5455335944260469	5.606925912674418
O	-1.0948558158604653	-0.3338951644260467	2.4262330316744185
O	-1.8056520068604653	0.9213184575739534	2.7903105226744187
O	-0.8325445958604654	1.4648341085739534	3.6381960826744186
O	-1.2118497738604654	1.9447102555739533	4.895232482674419
O	-1.8750238208604655	1.0361375715739534	5.625896152674418
O	-3.1559774748604656	0.9160012595739533	4.959540512674419
O	-2.911850734860465	0.6459069876739534	3.5952344726744183
O	-0.5385988608604654	3.069542745573953	5.637840772674418
O	-0.4867877058604654	4.190818205573954	4.8662627726744185
O	0.6452381451395346	4.858784765573954	5.121799502674419
O	1.4724637151395346	3.8269286155739533	5.306472612674419
O	0.7344764151395347	2.770961645573953	5.808915422674419
O	7.335272975139535	-3.0550261944260466	-3.2248128373255813
O	5.293134515139535	-0.32870234442604673	-4.9555447573255815
O	2.4831127151395345	-0.13128694042604672	-2.423370747325581
O	0.12231568513953461	2.7879111155739533	-3.208708547325581
O	2.3702370751395345	4.165532225573953	-6.003029867325582
O	0.7325984251395345	1.3657995365739533	-8.025991667325581
O	-2.4190646048604654	3.500407425573953	-7.965491837325581
O	-15.038216094860465	-1.5931967644260467	1.5731976136744186
O	-11.574661594860466	-2.6496246944260466	2.5556220416744186
O	-9.349501444860465	-1.0291733444260465	5.000994172674419
O	-8.801656664860465	2.5756628455739534	4.1663272026744185
O	-11.831851894860465	4.110041625573953	2.398070960674419
O	-7.331317024860466	6.613311495573953	-5.270039527325581
O	-4.770620184860466	9.184112795573954	-6.262323057325581
O	-6.693083524860466	10.432611365573955	-0.9263328073255814
O	-5.013038134860466	6.935114285573953	-1.3100112573255815
O	-8.481034284860465	5.296113165573953	-1.0901189273255816
O	-7.889255264860465	1.4680815875739532	-1.0969745973255813
O	-11.461113594860464	0.6048341995739533	-2.1479239873255813
O	0.7320951751395346	-6.099907134426047	-9.903750097325581
O	-2.6681784648604654	-8.711453024426046	-5.604359427325582
O	-5.506122344860465	-6.364381734426047	-4.678949387325582
O	-5.723395044860466	-3.949908414426047	-1.6673367273255812
O	-4.741973874860466	-4.104655374426047	1.0419289596744186
O	-2.4970591148604653	-7.100012974426047	0.6455312626744185
O	-0.40872363586046545	-5.761046724426047	-2.1961750573255814
O	1.2124102451395347	-3.6320501544260466	0.7023900026744185
O	2.7359194651395344	-6.327294294426046	2.7228673736744184
O	6.085991075139535	-5.379240304426046	1.3330872306744186
O	3.6382798551395346	-6.049527814426047	-6.495563757325581
O	2.7037132451395345	4.814523665573954	-0.9078997573255814
O	3.9544406151395344	2.888579695573953	1.8979735606744186
O	3.2400201051395343	-0.4328461344260467	3.7030384226744184
O	4.680603595139534	-2.7384808944260466	6.090374112674419
O	8.514339745139536	-3.021840414426047	6.553145342674418
O	8.521016465139535	0.7302826098939533	6.979613222674419
O	8.076867165139536	0.8924595965739534	3.234855822674419
O	7.894745225139536	4.570603985573953	2.2187578756744184
O	12.085062405139535	-0.24848439042604664	2.6235936426744186
O	13.370534105139535	-1.562834624426047	5.955493862674419
O	7.886453365139536	-5.510877914426047	9.495159142674417
O	7.832476745139536	5.337289995573953	7.830130392674419
O	10.698226805139536	7.508579385573953	6.642556412674419
