71

O	3.8727266019599993	-2.1156924469100002	3.416260480148
O	3.3515553519599997	-0.9739657709100001	3.3061144701479996
O	3.33381980196	-0.2494503439100001	4.586805460148
O	2.5772614019599995	-1.04955712691	5.451379320148
O	2.74525435196	-0.5422569459100002	6.777707330147999
O	4.02649344196	0.8269626580899999	4.935650130148
O	4.43189083196	0.9542367510899998	6.238451500147999
O	6.02584713196	1.88602485309	6.758466940147999
O	3.90751971196	0.08150440008999991	7.185201790148
O	2.3838404119599996	-1.08504877691	2.3264477301479998
O	1.6298009419599997	-2.3285762769100002	2.0744381601479995
O	1.8932830819599995	-3.36519077691	3.0102138001479997
O	1.0156579819599998	-3.67231511691	4.085886940148
O	0.1218028949599998	-2.5341269369100003	4.244280700148
O	-0.5387383075400003	-2.58271380691	2.938448750148
O	0.31140848695999973	-1.99153297691	1.9983838701479997
O	-1.9234164380400003	-2.7483976669100003	2.457690620148
O	-2.5265513980400005	-1.60226133691	2.0396317901479994
O	-3.6203848580400004	-1.80797417691	1.3051618441479997
O	-3.4459797680400004	-3.02786204691	0.9346385215479996
O	-2.7957259280400004	-3.59367619691	1.9976547501479998
O	-0.7856653780400003	9.898332773089999	0.5785840831479997
O	-1.9791217780400003	7.51959863309	-2.2052037698520004
O	-0.2745758800400002	4.41350675309	-0.9384604698520003
O	-1.2500659780400003	1.31964055309	-3.0301548398520004
O	-4.00570449804	3.1708417230899997	-4.853427479852
O	-1.0977541600400003	4.3804036030899995	-6.948348759852001
O	-0.7901984740400002	0.8229085010899999	-8.296098669852
O	-3.6269413380400004	1.67628969309	-10.662599729852001
O	11.56261377196	-9.09196650691	-3.0112702898520003
O	10.345953771960001	-6.38328257691	-0.6676888798520004
O	7.869714301959999	-6.44995820691	2.259296120148
O	4.6816817219599995	-7.93321035691	0.7593669157479996
O	5.07636282196	-10.36464136691	-2.1157537498520003
O	2.1951415519599995	-12.84959776691	-2.0175423698520003
O	2.5512706419599995	-13.58065616691	-5.769422949852
O	-0.12198659004000023	-5.50698747691	-8.057490079852
O	-3.7894173180400004	-4.73287662691	-8.661178669852001
O	-5.56481708804	-7.75536347691	-7.298554519852001
O	-3.25943162804	-8.86972944691	-4.455370439852
O	-1.5362773780400003	-5.562359856910001	-3.7577001198520006
O	1.8899106819599996	-7.20157228691	-4.306071999852
O	4.654934711959999	-4.63178880691	-3.6597773398520004
O	7.35153859196	-6.42830896691	-5.677404179852001
O	9.32303390196	6.6231129830899995	-4.525909579852
O	9.26121475196	2.86025687309	-5.000359699852
O	7.749372931959999	0.26518508308999994	-2.620322699852
O	7.60968189196	0.03664329258999992	0.3022009831479997
O	8.673077451960001	3.60945127309	1.1774343891479997
O	6.019615111959999	5.3520260430899995	-0.9275136498520002
O	3.6229737219599993	4.26556914309	2.005494680148
O	5.307573361959999	6.53880168309	4.663376970148
O	2.2623246219599995	8.69152865309	4.6220738401479995
O	-9.30674431804	-9.62941145691	-3.873443529852
O	-8.65344508804	-6.94275380691	-1.2093090098520003
O	-7.18520801804	-0.34603043691000007	-1.8326985998520002
O	-4.18283529804	1.17783761309	-0.12415840585200033
O	-2.71690884804	1.90933065309	3.2846660001479995
O	0.39788794495999974	2.8131133030899997	5.091450010148
O	1.7810935119599995	4.28373095309	8.168065610148
O	-0.2559840470400002	6.851723103089999	10.090360000148
O	-3.22590627804	4.47950745309	9.925148910148
O	-3.63833591804	5.56472960309	6.341276970148
O	-6.572882438040001	3.74297550309	4.781360770148
O	-7.59227225804	4.29425738309	1.1644557781479996
O	-8.18332562804	8.63246080309	5.201642480147999
O	-5.17503324804	9.26528230309	7.396943460148
O	2.3644957819599997	6.5316219230899994	13.022575670147999
O	-6.32777933804	0.8223799640899999	9.720658530147999
O	-9.93593021804	2.06380488309	9.480958620148
O	-11.51691912804	0.3836428900899999	6.4658436901480005
