28

O	22.796326145971506	12.959234809848878	22.206497304048817
O	23.08655239392657	11.753508393485689	22.501477154240455
O	22.55288667307767	10.61148906992511	21.646679206059755
O	22.488709135673457	9.461358216170696	22.464399035141856
O	22.580775854947674	9.918880808175851	23.81864332658289
O	22.851027191103388	11.329776657771694	23.866352021054396
O	22.953340429295135	9.169098861667392	24.819105327150286
O	23.203175967548738	12.130033275049449	25.044166135928293
O	21.26553966052315	10.902407940873708	20.997230986823254
O	20.191730431174875	10.363634206356675	20.486991408156808
O	19.07105335519998	10.763556104289185	21.366184592657163
O	19.315110819031716	11.537919327896937	22.51303695157268
O	20.107861985795928	12.561111559985099	21.96991770837297
O	21.105121393481465	12.23283268223931	20.905050382001168
O	23.30747755633376	10.66440276328516	20.40218771314254
O	22.726197194011377	10.375010660150714	19.131947153131897
O	23.548795733836027	10.74515166178761	18.07510074088436
O	24.886441913646117	10.40494690545296	18.362668443728268
O	25.273582742565594	9.873252465040137	19.551863050669713
O	24.5806078306082	10.271507175712985	20.703346902710365
O	28.1081380461457	11.745994569876284	20.873584653831042
O	27.278822348472737	9.740094927731725	20.758104130690004
O	26.70534762149432	10.216482288718048	19.641081920204964
O	27.220226719497237	11.242284531222623	18.827374035459297
O	27.64462175719101	12.251378998525801	19.609351799491535
O	28.454617451090954	10.356822568755272	20.989411618863265
O	29.757691378591815	9.850854280883635	20.817822535805064
O	30.199570540284885	8.600840385392393	21.191634942929763
