92

O	-2.8937253730937496	0.35862547273437484	4.790350432481251
O	-1.7243252639937492	0.4280703047343748	4.287656312481251
O	-1.2731396320937494	-0.6063489952656251	3.26486845248125
O	0.1358611169062507	-0.6837979952656252	3.3304733124812502
O	0.5210028269062508	-0.06170457526562512	4.561914112481251
O	-0.6122985330937492	0.5408313677343748	5.208843372481251
O	1.7119439769062508	0.41571671973437485	4.797773452481251
O	-0.6036056530937493	1.4283982987343748	6.376668222481251
O	-1.9087775770937492	-1.9229892752656252	3.4264292324812504
O	-1.7752459100937492	-3.1992861252656253	3.1878428324812504
O	-1.6378373223937492	-3.854146365265625	4.507354952481251
O	-1.6276658232937493	-3.081795545265625	5.6811707524812505
O	-2.760351813093749	-2.2794680152656253	5.472249112481251
O	-3.0642419530937492	-1.7792679952656254	4.09613629248125
O	-1.9988092920937492	-0.2938857152656251	2.0414565924812504
O	-2.487154229093749	-1.2980414452656253	1.1535735924812505
O	-3.368019223093749	-0.7876029352656253	0.20799099548125038
O	-2.8938785830937492	0.44910583773437485	-0.2752002985187496
O	-1.7768073470937493	1.0519529335343747	0.21007080648125037
O	-1.4749741970937493	0.8752213297343748	1.5674207224812504
O	-2.515907835093749	4.521458624734375	1.0497585364812505
O	-0.9418499240937492	3.241244344734375	0.2699337214812504
O	-1.9769793850937492	2.476847854734375	-0.11446425451874961
O	-3.2704137630937495	2.939333734734375	-0.4188087445187496
O	-3.655191383093749	3.8184913347343747	0.5240062494812504
O	-1.2942383970937492	4.541847154734375	0.29452956148125037
O	-0.9419617750937492	5.561993984734375	-0.6102632375187497
O	0.3119064669062508	5.784867114734375	-1.1353057575187495
O	1.8931411569062506	10.985939094734373	-0.5946583225187496
O	-1.8962048400937492	10.925758854734376	-0.5876451995187496
O	-2.194921248093749	8.070168134734374	-3.1304413275187497
O	1.092912786906251	6.177055724734375	-2.96496626751875
O	4.40568644690625	6.050126074734375	-4.957720737518749
O	4.629949156906251	3.2683189947343747	-7.52932477751875
O	2.0380634069062507	-0.23670476526562512	-11.72540072751875
O	2.8595531269062504	-1.333300105265625	-8.22180013751875
O	2.8131497269062504	0.5331423037343748	-4.926693377518749
O	6.171324536906251	0.6916830417343748	-3.1750520775187496
O	5.2471543269062515	-0.4330419852656251	0.34441442648125037
O	7.93305597690625	-0.7248216552656253	3.06778089248125
O	5.2343549969062515	-1.3351107952656251	5.643017492481251
O	4.079517226906251	-4.787838705265625	4.34412770248125
O	5.48207973690625	-8.003664355265624	2.9949719724812502
O	3.2025245769062507	-9.421762765265626	0.2648275394812504
O	3.3788942269062505	-8.819019775265627	-3.4698622975187496
O	-0.3938030330937492	-8.540068145265625	-4.03117055751875
O	-1.8369198560937492	-7.601961625265624	-7.450469167518749
O	-6.16817370309375	-9.896477565265624	4.646794972481251
O	-8.69156139309375	-7.845193625265625	6.643729942481251
O	-7.89911715309375	-4.4973324152656255	8.229889462481252
O	-9.79488607309375	-1.506162585265625	9.86294281248125
O	-10.14716907309375	0.4723330437343748	6.556264632481251
O	-11.14620733309375	-2.6095505052656254	4.519076122481251
O	-9.61369404309375	-5.8070245852656255	3.11352901248125
O	-8.088695563093749	-7.732533885265625	0.2584722594812504
O	-8.50988405309375	-11.397989265265625	-0.5585374065187496
O	2.1047317069062506	-13.337047165265624	-6.200562567518749
O	-1.1910473140937492	-12.998574765265626	-4.37973771751875
O	-11.20378799309375	-6.1923679852656255	-2.0762947975187496
O	-12.82700336309375	-3.441012585265625	0.01617307628125038
O	-11.34464976309375	0.09693316873437474	0.26931214248125035
O	-8.010018123093749	-1.2435526752656254	-0.9625642675187497
O	-7.6019449130937495	0.06428036773437484	-4.5457651475187495
O	-7.649870813093749	3.904952884734375	-4.932423167518749
O	-9.466959413093749	5.781661644734375	-7.608716747518749
O	-6.935746863093749	7.641443354734375	-9.79833807751875
O	-3.8223503730937494	6.233291284734375	-7.9494879075187495
O	-2.731729983093749	4.571512154734375	-11.22420292751875
O	-1.4071503890937493	1.461808109734375	-9.44210646751875
O	-2.8509067630937492	-2.0722822852656253	-9.64168758751875
O	-0.9592350340937492	-3.876167425265625	-6.89897889751875
O	1.4272409169062508	-3.500420185265625	-3.98247565751875
O	5.014994086906251	-4.499745505265625	-3.4541664875187497
O	5.4817742769062505	-5.346502035265625	0.15711684288125038
O	9.12098663690625	-4.697215695265625	0.8874130774812503
O	9.18258063690625	-5.5669662352656255	4.60135783248125
O	10.18956953690625	-8.978619985265624	6.153574452481251
O	10.08350453690625	9.982850364734375	-2.6148614875187497
O	9.413702036906251	-7.673361765265626	10.71082277248125
O	8.44208693690625	-4.094776405265625	9.87130339248125
O	6.54178139690625	3.0805238047343746	6.06181451248125
O	6.40095176690625	4.370710714734375	2.4258202624812504
O	2.8530111969062504	2.9326381447343746	2.3791555524812504
O	1.5483513369062507	5.326665694734375	5.132463392481251
O	0.761641326906251	8.941537914734376	4.03921212248125
O	1.3244878169062506	10.757923194734374	7.50315735248125
O	-0.2518968230937493	15.365934034734376	7.792995012481251
O	-2.076677982093749	12.097971434734376	13.06658987248125
O	5.207345106906251	7.814869454734374	6.54725459248125
O	5.55862121690625	9.269958634734376	3.0187030024812502
O	5.336458346906252	12.937270334734375	4.13374161248125
O	10.25703103690625	10.238909844734376	3.77829217248125
