87

O	-3.5014900041196975	0.33958281669242335	0.8862428462575758
O	-0.46560590511969724	-0.7756121023075766	2.176883536257576
O	-1.7881977941196974	-0.8609930723075767	1.9699805262575758
O	-2.0957822141196973	0.14757706669242332	1.1296651962575757
O	1.7487176058803025	-1.2360566323075766	1.0707160462575758
O	2.5510912258803025	-0.49787025230757664	0.040368041257575815
O	-0.23599168511969726	-1.8929750823075766	-1.252483351742424
O	4.931255395880303	-1.0684456823075767	-0.7700732967424242
O	3.7072309358803026	-1.3394868823075767	-0.2365820641424242
O	3.7767969258803027	-2.564867142307577	0.09783136825757582
O	2.698366245880303	0.8357224046924233	0.5093637502575759
O	0.3166637758803028	-0.8011789723075766	1.0723212262575756
O	-2.7918462241196975	-1.6488784823075768	3.103688736257576
O	-3.9581621741196975	1.1835210506924234	1.7859697962575756
O	-3.979544964119697	-0.5456657523075767	0.22253911625757583
O	-1.4587027601196971	0.012093173692423353	-0.046963348742424194
O	-0.09428434211969727	-0.057006290307576646	0.04092209625757581
O	0.7495685358803027	-0.7413743123075767	-1.0246718537424242
O	-0.7426880524196973	-1.4509247423075768	-2.555293723742424
O	-0.47129785411969727	-0.3252564223075767	-3.2904796137424244
O	-1.9833063141196972	-1.6958044323075767	-2.6945962137424244
O	5.401719695880303	-3.5526393623075765	9.984114406257577
O	2.1853068658803028	-2.5583233323075767	11.745198306257576
O	0.5187874858803027	0.09066031569242339	9.603601816257576
O	-1.4653331461196972	3.0642641776924235	10.880768806257576
O	-0.3230536401196972	5.697633087692424	11.418914506257575
O	3.2786469758803025	4.768591947692423	10.518342406257576
O	5.9576461958803035	-12.928737652307577	7.9188997362575755
O	4.083104555880303	-9.641633052307576	8.132928946257577
O	4.737012185880303	-8.666673542307576	4.463997206257576
O	6.300828945880303	-5.595191572307577	2.775059676257576
O	8.148131325880303	-7.524430982307576	0.0666346072575758
O	7.222220855880303	-9.252464332307577	-3.183317333742424
O	8.772164025880302	-9.611414852307576	3.7800261862575755
O	11.008096865880303	-6.767343362307576	4.874225426257576
O	12.758562165880303	-6.873807072307576	1.4974449262575757
O	8.167398175880303	1.5892408006924232	7.0020720462575765
O	5.906343585880303	2.975131917692423	4.265262626257576
O	7.928680245880303	0.8607281596924233	1.8416988162575758
O	7.566337185880304	1.9493672676924234	-1.7890068237424241
O	10.710215365880304	2.5814311476924234	-3.7926125037424243
O	10.218267465880302	0.5711086276924233	-7.006882483742424
O	16.901950865880302	2.459085217692423	-0.6753620107424242
O	3.0729607958803027	10.117458367692423	-3.1617469137424243
O	1.2320983658803026	8.210740577692423	-5.859836253742424
O	-1.5543089001196972	5.757902737692424	-6.484780313742424
O	-4.9793940341196965	7.353208237692423	-6.418066933742423
O	-8.616661964119697	6.396686947692423	-5.927670583742424
O	-10.575758534119696	6.120989057692423	-2.6782106237424244
O	-6.546046024119697	-2.9883200923075766	-4.850016353742424
O	-4.916462944119697	-4.797318322307577	-1.8981166137424244
O	-4.292091264119697	-8.299138202307576	-3.2465206237424242
O	-0.6939586762196972	-8.998148122307576	-4.220477443742424
O	0.2017730998803028	-5.544908972307576	-2.9548965037424244
O	2.531714095880303	-2.972589892307577	-4.567188823742423
O	-0.45028069511969726	-0.9726716123075767	-6.039432043742424
O	-1.7579749841196972	-4.1965504523075765	-7.581167373742423
O	1.7351644558803025	-4.917243592307576	-8.877260303742423
O	1.8026044358803026	-1.5227634123075768	-10.648476593742425
O	-8.749692904119696	-7.4195266123075765	-4.7924516637424235
O	-8.996328544119697	-7.112160812307577	-1.0646423807424241
O	-7.0995778941196965	-8.781209182307576	1.7151526462575757
O	-5.725714104119697	-5.518141162307577	3.133096816257576
O	-6.525096284119697	-1.8789534423075769	3.573853016257576
O	-8.885614464119698	-2.143435242307577	6.387468376257576
O	-10.974559234119697	-4.561933372307577	4.324549566257576
O	-10.818401434119696	-2.2752743323075766	1.3101830162575758
O	-12.043254234119697	0.6784847469924233	3.364971326257576
O	-14.946502234119697	-1.3860448423075766	4.707118696257576
O	-15.683824634119697	-2.527901282307577	1.1718038462575757
O	-15.755035934119697	1.0785568636924232	-0.08782822474242419
O	-10.084936744119696	1.2052987466924234	-3.935111743742424
O	-6.828075954119697	2.039456137692423	-5.702505413742424
O	-4.723776864119697	3.162990687692423	-2.741808933742424
O	-1.5735945131196973	5.1645541676924225	-2.0390212037424242
O	-2.4448998341196972	8.883041647692425	-1.8607146837424242
O	-0.9155926001196972	9.582092127692423	1.5626917162575757
O	-3.1390147441196974	6.868538527692424	3.024067526257576
O	-6.208438494119697	8.297169067692423	1.2364623362575757
O	-5.204355364119697	13.020464147692424	-8.977349883742423
O	-2.1086592941196973	10.860280147692423	-8.617250373742424
O	-1.8977703141196973	8.127304077692424	-11.232320893742424
O	8.277377005880304	7.723494897692424	-2.674583843742424
O	8.712519935880303	5.7478740976924225	0.5265046572575758
O	12.339249765880304	5.152623507692423	1.4921043562575758
O	14.314085865880303	3.5063464876924235	4.255615606257576
O	15.513072565880302	0.12409339269242337	3.031800746257576
