21

O	2.4834873195428675	38.02045319655982	101.09689899472414
O	0.46502203689292426	35.18564180204127	101.22198944541006
O	1.1281235116460824	36.16240730013328	100.58514278698196
O	1.6041501666948679	36.974795349265634	101.55022104072735
O	-1.6835283681728537	34.72072768212411	102.44935667264913
O	-2.1489035151120532	35.01388400451759	103.84500165341929
O	-1.9262174559519456	37.796222355112704	101.94905397858145
O	-4.340119184639113	34.218222147036954	104.94638671686451
O	-3.5308383934406056	34.55732777145842	103.90408921493925
O	-4.226980101229689	34.298617172234025	102.87128521569382
O	-1.158893762430125	34.50124999359679	104.72659302237808
O	-0.5205822794754276	35.57957251098974	102.06226329566924
O	1.7301456260377241	35.91286943483167	99.00759148090097
O	3.7141697361499797	37.5568129503811	101.12425424638205
O	1.90326415440712	38.87187732611059	100.47150132509975
O	0.6036929428723867	37.51884917795713	102.26560319291437
O	-0.23884462430333264	36.61647217671134	102.85719629823747
O	-1.6759334230589533	36.96768148570422	103.2140793901451
O	-1.9037088378709734	39.1178638935307	102.5832633944372
O	-1.6593540187923081	39.48805559673296	103.88115742883033
O	-1.3652458462779926	39.99728753671899	101.83816166980868
