25

O	11.571923606931222	25.614966306107103	8.890387669139411
O	11.177090398553275	25.04014461995429	7.571604500192807
O	11.599432830171589	25.643359902546802	6.34669134376881
O	11.549427989709411	27.000461316690004	6.652217253151962
O	12.491532113019044	27.27103927991046	7.734833473510801
O	12.083969739740445	26.913940847112357	9.106812152014317
O	12.23437129188428	27.913097674526224	10.014269643988753
O	12.707308523238849	29.134424139527624	9.61246640074951
O	12.980849196122564	29.95530736933082	10.599973492123395
O	12.682463116892345	29.32646636999294	11.72608071870794
O	12.843140135252813	29.81426311053533	12.9882358835837
O	12.84887774288729	28.959336976221913	14.002625426256632
O	12.538962526174775	27.685713567037638	13.754512781111783
O	12.419927409818424	26.73771233008377	14.674332116641514
O	12.028398971438389	25.650844635026058	13.938002138291766
O	12.001130037465789	25.885581386177556	12.565038193047851
O	12.244632807932032	27.209998838771117	12.457167466501472
O	12.33706910475679	28.036723937524965	11.375996354821494
O	10.99308354682796	25.438267745308533	5.092963112057879
O	10.31897162894594	24.178870398793045	5.457340816477753
O	11.116594640738533	23.12789943717612	5.829843701791743
O	10.326440001425903	21.96395104898612	5.760433853104033
O	9.280472762787664	22.0247939242236	6.670467954616254
O	8.633436145927485	23.220167935323545	6.761060938542322
O	9.069396862261042	24.295306061894294	5.995222949926265
