28

O	-8.137062400084194	-23.475743392005846	24.474932251258426
O	-10.94017153630751	-20.959942055864083	22.299361689955354
O	-5.4027200200706575	-21.539629916074112	22.06186686478041
O	-4.632821544019128	-21.31179656150517	20.835916457248373
O	-4.682143917409975	-20.03260583369081	20.11343500816889
O	-4.080097483835331	-20.229488194011658	18.741873351342356
O	-2.826784559522568	-21.09694750162494	18.786405650353615
O	-2.2609433961877627	-20.92251169405698	20.19087008452795
O	-3.204665624694721	-21.683538026606712	21.080792347007115
O	-4.3331279889993635	-25.124053990909612	23.89225392471238
O	-3.7642847147973235	-25.930310228502243	24.829711660316764
O	-4.447406082977632	-26.051142305155285	25.996465111926717
O	-5.719910121199698	-25.620879321173426	26.14862524064244
O	-1.249764563594903	-26.203482376628642	23.45263376042464
O	-7.266845585036259	-22.899596708071165	23.59397976838974
O	-7.6067820315061905	-21.858860766810665	22.83766489252902
O	-6.749972609659471	-21.17824077265067	21.966276411614015
O	-8.939794406140251	-21.6410215034727	22.6774175492734
O	-9.655599377153788	-20.675419647375207	22.14368658735375
O	-11.032025630712935	-21.872259833849608	23.24001116311754
O	-9.815065768085312	-22.37487322571188	23.42609462723099
O	-9.438292184425448	-23.196888507609938	24.435441338045912
O	-7.743669220389625	-24.53221335107407	25.3410298440487
O	-6.401348902539993	-24.929116117416616	25.203066699954977
O	-5.575304097194029	-24.59944347929892	24.125140730817833
O	-2.222717472186037	-26.731021113270533	24.757298181334576
O	-2.5556830679056137	-28.20572503454761	24.681664311521605
O	-1.4498391045998336	-26.60126434195851	26.056566355636924
