19

O	17.662427826745848	6.371200658977019	12.104790154138275
O	16.840532102022227	7.601135299227057	12.484353330627163
O	17.441329326310537	8.701767298261853	12.892676913197096
O	16.68960151492681	9.729042138068897	12.53815071617371
O	17.04653524820473	11.076758032715203	12.593488871496838
O	16.16973170486328	12.051402935841804	12.375388366438312
O	15.01743094475982	11.72227594258636	11.787749107905785
O	14.677932124171305	10.379928152212756	11.506047722363308
O	15.576022585039468	9.353069096064072	11.825255977230631
O	15.68528936701291	7.999257211400108	11.775942648111304
O	14.663554606716893	7.043558094265055	11.474716152942323
O	14.786537612719696	5.797824445887712	12.235379635657017
O	15.47372459473576	4.769090239561333	11.31372937087482
O	14.421500462211498	4.086677639605102	10.641606102032721
O	13.5442202357957	5.21266140518387	10.277608586241467
O	14.266387715774934	6.552633614343821	10.167447736023046
O	13.430206999407957	10.422484221481119	10.947279059761224
O	13.094290018099624	11.733732559929726	10.852634323135675
O	14.03183148432559	12.546099815466647	11.400832451841403
