20

O	3.679591562933799	-20.58953530205803	-10.944047749707448
O	4.920941221844328	-19.23657537130293	-12.306504302215783
O	4.654314809511831	-20.05263236260224	-13.310864360408301
O	4.069535901178586	-21.231932373884547	-13.132424673690432
O	9.370222424491208	-18.43647383055294	-12.016943538720053
O	8.117049591431524	-19.34792328613858	-11.16280738223432
O	7.187463046224816	-18.15963707087545	-10.242159520224124
O	7.556345370358905	-16.697368981992497	-10.594981735910423
O	6.940543435508616	-16.792134783711873	-11.917456975815526
O	5.596009959269654	-16.64546874469163	-11.52044442963359
O	5.0320865319097905	-16.86915901113457	-12.672824853872637
O	5.486772085145489	-18.19363147718173	-13.021922897445705
O	5.8877080583884425	-18.550111026142503	-14.248089594845446
O	4.902923460375932	-19.458473848137054	-14.520403463585547
O	3.8661335752962973	-22.027325539796532	-14.26791847731003
O	3.817926975255416	-21.563766172227762	-11.841956361304051
O	4.376014429428027	-19.46583781766125	-11.103691755841487
O	5.309598667306617	-16.78485015109702	-10.213940858949567
O	6.5016614968576105	-15.858232080805617	-9.932514436296362
O	6.220077425173997	-14.657108443117743	-10.5441113853962
