93

O	1.1692547519428573	-2.0768520963571433	1.7978137070999989
O	2.3474134119428576	0.02639273964285682	0.7313472370999987
O	1.1928837219428576	-0.40994069635714303	0.19920511709999889
O	1.4752978319428576	1.616257548642857	-0.49811358090000124
O	-3.0267755280571427	1.683849437642857	-2.2888379929000013
O	-2.1382759680571426	0.9518879866428569	-3.147502612900001
O	-0.9681692130571425	1.7438023806428569	-3.220040492900001
O	0.4374962219428574	1.5103324136428569	-3.5047319029000015
O	0.07248864894285745	0.1803201976428569	-4.709909292900001
O	1.2782808519428572	1.117069563642857	-5.593210802900001
O	2.6687480719428573	0.7385423862428568	-4.909009102900002
O	3.1088863819428574	-0.4027927363571431	-5.818198072900001
O	3.4983253319428576	0.2168971176428569	-7.123533472900001
O	-0.6976143111571426	1.686255714642857	-1.7052072559000013
O	-0.9005776530571425	0.3522456456428569	-1.5235821389000013
O	-1.8277032380571425	-0.21358685635714303	-2.304597552900001
O	0.40152562194285746	-0.1503225833571431	-2.0679439169000013
O	2.4437320419428574	1.3255975716428567	0.4120730270999988
O	2.9520415519428576	-0.6631473763571432	1.7014082370999988
O	4.136850111942858	-0.20571222635714315	2.279335957099999
O	0.6239452419428574	-1.4809997163571431	0.7364297070999988
O	1.2030178319428573	0.3788255666428569	-0.9754458359000012
O	2.4416528819428573	-1.8202796463571431	2.075537797099999
O	-8.705280288057143	5.820791713642857	-2.084834589900001
O	-7.1068812380571424	3.1522876236428568	-4.2442354929000015
O	-4.691233468057143	5.160552273642857	-6.309392782900001
O	-1.6759090850571425	9.533801493642857	-6.114631272900001
O	-3.8474511280571426	9.041601303642857	-3.0655537429000015
O	-6.9209839680571426	10.854769913642857	-4.500989682900001
O	-10.689582638057143	6.011721673642857	-7.044513362900001
O	-11.096167128057143	2.2026690236428568	-6.716409842900001
O	-7.887426708057142	0.6560953546428568	-7.964594762900001
O	-5.732121808057142	-1.7154193263571433	-5.893146912900001
O	-6.664016218057142	-4.742335406357142	-3.7684512129000014
O	-9.660083228057143	-6.281474036357142	-2.131956068900001
O	-11.182603628057143	-3.5534878863571433	-6.719690562900001
O	-12.071381528057143	-1.853459776357143	-3.4344063829000016
O	-7.932644678057143	7.364845093642856	2.738921297099999
O	-4.441020418057143	6.733307373642857	1.418064137099999
O	-1.0810541620571426	5.191274913642857	2.2975590170999984
O	-0.3932587680571425	2.2551081536428565	4.680713987099999
O	2.5023709819428572	0.12498752264285684	5.967885537099999
O	3.2391723319428576	0.8908871186428569	9.613519197099999
O	-3.3226266580571426	5.617644693642857	11.442044097099998
O	-8.369185018057141	-9.692210286357144	6.716806587099999
O	-5.0315628980571425	-13.483390386357144	4.603963837099999
O	-5.745673518057143	-2.311110956357143	10.5774553971
O	-5.349975768057143	-5.482614606357144	8.5607314371
O	-5.865318358057142	-5.986525716357143	4.847073167099999
O	-4.738612958057143	-8.549749316357143	2.3229813970999986
O	-3.9394711580571427	-8.838136536357144	-1.350969693900001
O	-0.2105825910571425	-8.630744996357144	-0.6010278509000012
O	2.3721388219428574	-5.952909886357142	-0.3964019269000012
O	4.283946751942858	-6.542147716357142	2.7616734670999987
O	8.073211221942858	-6.276105126357143	2.8668477770999994
O	-0.8638411770571426	-0.9972931763571431	10.1136628971
O	-1.2429070070571426	-3.2065996063571434	7.0171675970999985
O	-2.6709754080571426	-2.349398896357143	3.541617047099999
O	-4.8427746580571425	-3.9308080363571434	0.7606701970999987
O	-8.349174588057142	-2.390040966357143	0.6435115470999988
O	-4.513291808057143	6.6872938336428565	6.228283367099999
O	-0.8996377880571425	7.823875563642856	6.521792157099999
O	2.3362179319428575	5.864846543642857	6.695999137099999
O	4.4315057919428575	5.473105133642857	3.487714617099999
O	6.676559271942858	2.7013153336428566	4.774559787099999
O	7.128370671942857	0.25048865464285686	7.712350517099999
O	6.223624541942858	-2.9634595663571432	5.845563227099999
O	9.935947771942857	-3.965328766357143	5.977347427099999
O	13.296042671942857	-2.193111026357143	5.367435197099999
O	12.777457771942858	-2.250234676357143	1.562888617099999
O	9.165816091942858	-1.051377266357143	1.8192219670999987
O	8.848611191942858	-0.9628462163571432	-1.9722441409000013
O	11.560981271942858	1.752368542642857	-2.082032577900001
O	10.171293171942857	3.674078353642857	0.8798564970999989
O	6.857430951942858	3.580253043642857	-0.8560892069000012
O	8.210061811942857	5.104317663642856	-4.092109972900001
O	9.840574071942857	7.873956983642858	-2.073964762900001
O	7.228776881942857	8.674721973642857	0.5369657570999988
O	3.8409078219428574	7.979950733642857	-1.0345647879000013
O	3.573563081942857	11.670432313642856	-1.8127130319000013
O	1.5745473919428572	9.958268493642857	2.9136410470999987
O	-0.9279381330571426	11.314506513642856	0.3675111270999989
O	-3.9715227380571427	11.737193813642856	4.810735837099999
O	1.4689095819428575	-10.741451786357144	-4.1453077929000015
O	2.7297759619428574	-7.392100456357143	-5.4172188429000006
O	5.908760621942857	-9.082421956357143	-6.745498652900001
O	7.954629901942857	-6.404620686357143	-4.875473282900002
O	7.023857271942857	-4.142123376357143	-7.694028862900001
O	7.6575375119428575	-6.665094126357143	-10.4991965029
O	4.174377221942858	-8.152067276357144	-11.0768217529
O	-2.8535801680571424	-7.326937076357144	-8.9305923229
O	-1.6900001570571423	-3.932511076357143	-10.2557801629
O	-3.8892257080571424	-2.741670756357143	-13.089893102900001
