25

O	-0.6139682711520362	2.6240084013083753	19.673717507182904
O	-0.6470382267563588	3.0925608725289835	21.077352330130793
O	-0.9172785602057667	4.503978929535683	20.63071609884095
O	-1.4959331803064781	2.4555627239401554	22.050248820042693
O	-2.686631603131027	3.006166265339951	21.87576632718029
O	-3.816904829129342	2.4119418035166498	21.459690242481805
O	-3.74623785246827	1.1127947041351893	21.225461370288027
O	-2.888714115405169	0.5682983665632291	22.207293262056627
O	-3.0107044041118605	-0.8526568165112236	22.064426152460445
O	-3.345675133661612	-1.5527346524368228	20.94331128952846
O	-2.8674156549554453	-2.8180925391761913	20.958355922847705
O	-2.946605838424357	-3.40658914906684	22.134162213140776
O	-3.167844879625799	-2.771966947052849	23.270175940124997
O	-2.9484422018455243	-1.4612822372884977	23.23173549912903
O	-1.733185558435971	1.2417248037970345	22.623921659359365
O	-3.8690164006572605	0.4764950843760341	19.88531863570263
O	-5.092333889119212	0.5022888713544722	19.323516207736596
O	-5.129103795606956	0.507220834393193	17.94463542551651
O	-6.075191177106758	-0.07540334432281798	17.156632780650085
O	-5.878625046227762	0.0029188296124002533	15.807389589134502
O	-5.44879952168244	1.2528320634199923	15.364371647104589
O	-4.730717087984413	2.0114672175335877	16.23735884194115
O	-4.254778310574762	1.4141307134050638	17.348838092150153
O	-3.0131310066219337	1.3445930751156452	17.88018636786288
O	-2.8360747041614127	0.46928626530125267	18.94990638667458
