73

O	4.3892812277245286	3.0431794098301888	4.7083615056094335
O	3.437826157724528	3.1748161898301888	3.7550290056094338
O	3.662655087724529	3.9280178298301887	2.807577625609434
O	2.203110317724528	2.362148969830189	3.946573905609434
O	1.8325624277245283	1.9523539718301888	5.239900095609434
O	0.6338862177245284	1.9962114158301887	5.849531695609434
O	0.3600061877245283	1.408950099830189	7.165972585609434
O	-0.13257690227547164	2.9019190598301887	5.166848725609434
O	-0.10949545227547164	2.6768860898301887	3.759632125609434
O	1.1629552577245283	2.969037889830189	3.249185625609434
O	1.1921765977245284	2.6154357598301887	1.892276465609434
O	1.0550759477245284	1.201738278830189	1.6288991956094339
O	-0.19326139627547168	0.7015524318301889	1.994601455609434
O	-0.37320060927547166	-0.26332767016981107	2.990806445609434
O	0.7895681377245283	-0.5470410301698112	3.623761275609434
O	2.0887607177245284	-0.39951929016981125	2.969346995609434
O	2.2664852577245282	0.6740324458301888	2.1512070156094336
O	3.408758167724528	1.0824488693301888	1.3220530986094339
O	4.706440217724529	1.252694764830189	1.6858234016094338
O	3.323805977724528	2.0168268188301886	0.4436527546094338
O	0.6256680377245283	-9.81058158016981	6.058530925609434
O	13.562595827724527	-8.075316760169812	2.137668005609434
O	11.142704327724527	-8.566290360169813	-2.398668764390566
O	0.7836105677245284	-10.92321228016981	-4.218914734390566
O	-2.001025382275472	-8.43846195016981	-5.015206004390566
O	-4.712210552275471	-11.09937958016981	-4.4686002943905665
O	-3.4431726122754718	-11.77959128016981	-0.9425335543905661
O	-3.3430860922754713	-8.060834980169812	-0.13503863239056613
O	-6.892922362275471	-7.609741880169811	-1.3515825943905662
O	-6.8481124822754715	-8.962696280169812	3.814548605609434
O	-7.924509272275471	-5.404250540169811	2.973315525609434
O	-2.9037700622754716	6.109608779830189	-9.856328194390565
O	5.559470667724528	6.674192399830189	-8.068774874390567
O	9.349716677724528	6.4298198598301886	-7.987329194390567
O	-8.717331792275472	6.739974179830189	-6.182504684390566
O	-6.135985892275471	4.759383039830189	-4.211108104390566
O	-3.307094672275472	6.873557869830189	-2.9239233943905663
O	-0.5824883246754716	7.498749509830189	-0.36171398439056623
O	1.7384697577245285	10.176524769830188	0.9228673663094338
O	5.074083787724528	10.85419187983019	-0.8075021743905663
O	7.865344797724529	8.27862401983019	-0.6745431343905662
O	10.630313827724528	10.17663230983019	-2.502897304390566
O	-7.744093462275472	11.434386219830188	3.408908635609434
O	-8.569216192275473	9.592199389830188	6.662465195609434
O	-12.025515772275472	8.201688469830188	5.841556975609434
O	-10.228050162275473	8.505433189830189	-1.873641494390566
O	-8.879797862275472	5.3338538998301885	-0.27503621439056614
O	-5.781187252275472	6.122967899830189	1.7666887636094337
O	-3.595749302275472	3.047382829830189	1.4428185406094338
O	-2.8379597622754718	2.621883639830189	5.090079265609434
O	-6.0754529022754715	2.988741949830189	6.268111485609434
O	-7.290087652275472	0.09304806983018876	4.079179595609434
O	-4.202726912275471	-2.1316994101698112	4.166715735609434
O	-3.0117360022754713	-1.9823003601698113	7.763294405609434
O	-1.6145313022754717	-5.5406312401698115	7.653612165609434
O	0.8997735577245283	-4.487388840169811	5.0749313956094335
O	2.7193350677245283	-2.2134591101698113	7.5666201056094335
O	5.631847067724529	-4.705023830169811	7.948319925609434
O	6.252521247724529	-4.797628340169811	4.190960015609433
O	5.983233877724529	-1.0578279801698112	4.1561167756094335
O	8.603798327724528	-0.6632882301698111	6.730845205609434
O	10.975623927724527	-2.9184308901698115	4.782944045609434
O	10.371177227724528	-0.9351790501698112	1.5731291626094337
O	11.458982627724527	2.2503704298301885	3.370888815609434
O	12.440818027724527	-0.11372737016981116	-5.822357164390566
O	6.472151567724529	-4.244393340169811	-3.9136394843905657
O	6.441042217724529	-0.882110770169811	-5.729692754390566
O	1.3708141277245283	-3.186323110169811	-5.476985914390566
O	-0.4221599192754717	0.12343209983018877	-4.855540864390566
O	-2.053198222275472	0.5144611188301889	-8.188061344390565
O	-2.992106742275472	-3.1809949201698116	-8.042461304390566
O	-4.537359102275472	-3.1406087901698108	-4.537262984390566
O	-7.280459122275471	-0.48973477016981115	-4.623267494390566
