25

O	63.16139030379379	10.79891277474787	2.443949737335241
O	56.15549063898623	7.682423830761373	1.5736285687326064
O	61.15464035639622	11.311358489145901	5.1126670636166
O	62.07697419934048	12.214936057946064	5.443315803229715
O	56.55165588161323	8.071173519428307	3.7760024078985617
O	59.75191251342052	11.1192775782193	5.112719038625457
O	57.743085226469525	9.946262814442063	6.9163633438864345
O	57.294656562288495	10.798377633033681	5.971094789934409
O	57.50758260367695	10.01649438038155	4.742521051651312
O	59.3762416861627	10.206912746441287	6.961501892114908
O	56.8673967438013	8.449213597426409	2.546577822065558
O	60.7408856651483	10.151254814053768	3.162102567771665
O	62.807192680121936	11.177892225316917	3.6835889118399274
O	61.58317845468364	10.784313632802519	3.9624591800094926
O	63.148044772672094	12.034173091721375	4.613752587840853
O	53.13870120879976	6.35216778194496	3.654394530656654
O	54.44002452579573	7.433119303160273	3.1277505439928825
O	55.00447282298672	7.005202938507243	1.9129541600715931
O	55.149670535197416	8.332770400860877	3.9790425058388843
O	57.06205175930208	8.76808966891526	4.874417337457721
O	56.824105149405455	9.09527429249037	6.264687989537764
O	58.84673581473643	10.101388929097984	4.175344778448748
O	59.147302986442675	12.027740319619062	4.555645592404178
O	61.3226433392025	9.489977633951115	2.2314998618812716
O	62.370556989320185	10.029874437249756	1.6131361464542215
