17

O	-11.35952757056569	7.98975073635035	8.7195198232995
O	-11.214931308387378	8.689361836655156	9.836487477025095
O	-12.398442537106195	7.899915320859	10.427878289714554
O	-12.172949151574302	7.152302777592613	11.490849584143422
O	-11.047845574435348	6.566459305344227	10.701671421109678
O	-9.922853917682573	7.434362789917126	11.025309849872178
O	-9.928216836265143	8.788355012498705	10.51899568668013
O	-8.801463790576339	9.77319187924597	10.681779482768325
O	-8.368500046412555	10.254228729179959	9.417119936125978
O	-7.445989657060171	11.309067227621297	9.344232342644151
O	-7.104007987661188	11.820767438804676	10.551584766565503
O	-7.912923723423854	9.988055771729734	11.62045377893072
O	-6.872102810500277	10.85727563698316	11.473258661988265
O	-5.694602116672274	11.360506339897638	12.134824115749852
O	-5.743971090642686	11.135167226858435	13.528000356891171
O	-4.3815171988094095	11.046021511951578	11.588707136756682
O	-5.377612556690805	12.815158251075635	12.186382781228241
