20

O	-11.942971427466642	1.9488249642761182	14.656066024711645
O	-11.90154947298613	2.5308955841603065	12.394709493002201
O	-12.27766955337038	3.1231208858762187	10.225501873081985
O	-11.896334313170541	3.997750840935847	6.677561353647909
O	-11.5742956497644	1.8111609154253656	8.328382878035084
O	-11.675230197935967	4.789557365306252	11.644034759182459
O	-11.629442674718689	3.887930481230037	12.657316579759728
O	-12.105643453983927	5.572760854702448	14.295393332837165
O	-11.93576468122365	4.19457961802474	14.001524297204297
O	-11.880225041079814	3.2917029575043895	15.018814882070068
O	-12.046117230994804	1.177623669673462	15.631387213295863
O	-11.636233764404498	1.67049302047624	13.389378161622973
O	-11.57376037438323	2.3048321629630824	11.073578633282573
O	-11.999580581460918	3.0082071079753394	8.818012128283852
O	-12.478906689004196	3.932489448012581	7.934028886564246
O	-11.181226610930416	2.860421253906587	6.298738530913255
O	-10.50940610703927	3.0952268114991064	5.086671876011666
O	-10.636070510845114	2.2126123166722946	7.440580001538492
O	-10.670208505708308	0.814795727872838	9.451418446103293
O	-12.455744047576509	4.422645694343184	10.591520533959471
