17

O	-14.129134783847134	11.90098002380349	31.695485454712824
O	-15.19519156234693	11.320226690270779	31.087876800705608
O	-15.022409040606997	9.83983291334961	31.066203668774712
O	-14.894811016821508	9.538300112820554	29.69996252617854
O	-16.28637789506176	9.38669551784175	31.721884592255282
O	-16.70117035669225	8.327253431260937	30.775933840840505
O	-17.210838429237224	10.443474086743265	32.01216974261828
O	-16.534734018631024	11.578942649434767	31.53522720920087
O	-16.84729543694808	12.511923848000919	32.628656954978204
O	-17.410736812790425	13.598627049922609	32.17251883980539
O	-18.25574879151846	14.060371078538878	33.09620531244964
O	-18.502550815217212	15.432943879785785	33.299667238352754
O	-19.450153804131123	15.645368016082003	34.25751760741845
O	-19.461116480836886	14.814937799840234	35.33174601543503
O	-19.049642950897326	13.520372564199333	35.19751138536843
O	-18.103997203782153	13.322921235204587	34.231662366194925
O	-17.20458100336473	12.377945323521036	33.89143832767407
