74

O	2.5503104604000004	-2.629478340102083	7.6007378885416665
O	2.0668866104	-2.4677582401020834	5.1208627685416666
O	1.3188872404000007	-2.6454098501020833	3.8837552685416665
O	-0.8653979295999994	-2.080085300102083	3.4118185385416666
O	-2.3480567195999997	-2.869801640102083	1.2884427385416664
O	-2.9797931795999997	-2.804299790102083	-0.9327037014583334
O	-4.871805849599999	-4.1261303001020835	-1.6177551014583336
O	-0.8974150965999994	-1.9220024401020832	-0.3442721114583335
O	-0.21809099559999945	-2.315280810102083	9.602611608541666
O	0.5092435204000005	-2.8700042101020835	8.596392808541667
O	1.8554845304000007	-2.699429860102083	8.971059138541667
O	1.6834382104000005	-2.6609154801020836	6.459553778541666
O	2.8819550604	-1.6004084301020831	4.909361738541667
O	0.0068285104000005425	-2.8249332401020832	4.213911968541667
O	-0.4396292685999994	-1.8022407601020831	2.1404657385416663
O	-1.2062051456999994	-2.209799350102083	0.9440196945416666
O	-3.3410640696	-2.821364370102083	0.41264894954166653
O	-3.8286210995999994	-3.1449838901020835	-1.9699476714583335
O	-3.3862133195999995	-3.192396810102083	-3.2708228014583334
O	-2.1543756465999992	-2.6024817201020833	-3.5567212114583335
O	-1.8776965345999994	-2.7130523101020834	-4.792775151458334
O	-1.2390783263999994	-2.685937380102083	-2.563993851458333
O	-1.5976653025999994	-2.7162368301020834	-1.2576782914583335
O	0.8134061504000005	-1.4408519001020832	1.8317638585416665
O	1.2624925704000007	-0.44633421910208326	0.5004848735416665
O	1.6356383804000008	-1.757960680102083	2.8599091185416667
O	3.3191476904000004	0.6141731938979168	-8.617976811458334
O	3.4566656504000006	0.17059248689791676	-4.951643511458333
O	4.5979515704	-3.1045138401020833	-3.253750721458333
O	5.074684270400001	-3.4074304401020834	0.4787946505416665
O	7.5748423204	-4.928687750102084	2.9793677185416665
O	8.362354960400001	-1.2515512301020832	4.017593988541666
O	9.835820420400001	-0.2971653152020832	0.7452158375416665
O	8.5805662904	8.847046339897917	2.3725262085416667
O	4.9885026104	7.660297329897917	2.3529827685416667
O	2.9994952904000005	8.307529169897917	5.4855548885416665
O	0.03694388040000063	7.038307509897916	7.588218108541667
O	1.9919575104000005	4.022829879897917	8.292129398541666
O	1.8968208004000007	2.873836329897917	4.722305168541666
O	-1.9096548885999995	2.9866489398979166	4.784102288541667
O	-4.039707139599999	-0.05925525110208321	4.365831108541666
O	-6.4164121796	0.13415806989791676	7.3039863785416665
O	-8.736359349599999	-2.5278693801020835	6.0653375885416665
O	-8.9048869096	-1.4307816901020831	2.4716190885416665
O	-12.1552317796	-1.3890469701020831	0.5015453035416665
O	-11.8636574796	2.3338260498979166	-0.5039748104583335
O	-10.967962139599999	3.4032597998979166	3.0043814785416667
O	-7.8193409496	3.7845426898979166	5.025735038541667
O	-5.204250399599999	5.249212139897916	2.724858498541667
O	-2.1584906895999993	4.3241940198979165	0.6737383715416665
O	-2.849901869599999	2.0965214198979165	-2.3252497914583334
O	-1.1200502107999994	2.1141146298979168	-5.6697372814583336
O	-1.1167558285999994	-6.485718970102083	-8.279580551458332
O	1.6501095304000006	-4.6839611801020835	-6.185611211458333
O	3.6821902604000005	-7.903067100102083	-6.264566501458333
O	0.9905184704000007	-9.668609060102083	-4.278949161458334
O	1.6433748904000007	-7.118889110102083	-1.2824568914583336
O	5.4411956104	-7.350485820102083	-1.5280749614583335
O	5.5418852504	-9.899636890102082	1.3785044985416663
O	2.639540790400001	-8.158454190102082	3.256535318541667
O	-1.1504674495999994	-8.036510040102083	3.1718052185416665
O	-2.3026342895999994	-11.230421910102082	1.1621910005416665
O	1.3288484904000006	-12.118408310102083	0.3679381365416665
O	1.8223230004000006	-12.640460710102083	4.123339728541667
O	8.5983885204	-2.829856070102083	-5.960529721458333
O	8.3571053504	0.9105691098979168	-6.079839231458333
O	5.8729292204000005	5.942718829897917	-7.980592711458334
O	-5.7117187996	7.234591219897917	7.756453818541667
O	-10.1058765796	7.6032783298979165	-4.782406591458333
O	-5.9080663896	4.415348029897917	-6.539743481458333
O	-5.908751629599999	5.461884199897916	-2.8298429114583334
O	-4.361237889599999	8.615548829897918	-1.4356343314583335
O	3.3318133504	10.212329489897918	-3.827932391458333
O	7.0954388404	10.163423189897918	-4.5944980214583335
