26

O	0.5766930409399114	-11.03780346895829	-3.0588953154368053
O	0.777763618098193	-11.29686272493425	-5.569292006237337
O	1.4145731151789733	-11.614346690353713	-6.840187641111221
O	3.4337419052073193	-10.882413758644816	-7.677235673599926
O	4.793200694079771	-11.874449503286536	-9.798176657211563
O	5.1804680982212	-12.158931072385773	-12.057815378269382
O	7.166088480321179	-13.341355199974554	-12.732669541725752
O	3.061931646550857	-11.446658352949242	-11.37556197477752
O	3.4577837655827173	-10.001882097898827	-1.5108487238811321
O	2.7211927186679405	-10.825990644925117	-2.302990475380925
O	1.4093933881679361	-10.755802237471517	-1.7969357069237155
O	1.3188368570666387	-11.179698721286165	-4.277027187632751
O	-0.17242947418521015	-10.59489356375305	-5.825684948634294
O	2.7653903606698527	-11.562005379330708	-6.65234898288022
O	2.8454689086463403	-10.909475447933982	-8.913365533143562
O	3.5382564775641843	-11.440614971510326	-10.10632903077694
O	5.674670411981536	-11.871844978946157	-10.787332297141496
O	5.960546455824355	-12.584111899777032	-13.11760241682182
O	5.400419047147509	-12.935526743477794	-14.323012565408476
O	4.073082744595056	-12.569884316749635	-14.550269518162441
O	3.691832859284353	-12.9496478010869	-15.702239461300792
O	3.2850381516267957	-12.574404280250015	-13.450630062582864
O	3.774580701200774	-12.308040503682129	-12.215574821244333
O	1.5283433337567272	-10.7733056646018	-9.119846840275983
O	0.8063773429989043	-10.117193123311615	-10.538060226090499
O	0.8695960786493351	-10.986846947703572	-7.956163606589059
