82

O	-4.8367263584490185	0.6187847294509803	4.979398543098039
O	-3.692556378449019	0.17147759175098026	4.364010293098039
O	-3.176255068449019	0.07054421145098028	3.1027681530980393
O	-2.5046391684490192	-0.9182025655490197	2.4952501130980393
O	-2.5199099084490193	-0.8991154655490198	1.0405487980980395
O	-2.784098228449019	1.1439297334509804	2.4317788330980394
O	-2.796811008449019	1.2179353794509802	0.9683237240980394
O	-2.541117318449019	0.14465877045098025	0.09804768809803932
O	-1.763292308449019	0.005660112450980248	-1.1035601069019607
O	-2.068035015449019	0.6700645334509803	-2.2594451169019605
O	-0.5958525584490192	-0.6391675075490197	-0.9360555869019607
O	-0.1915796084490191	-1.0839855555490199	0.22313039909803933
O	0.9943724115509807	-1.6515622355490196	0.08819272809803935
O	1.297720901550981	-1.5411109055490195	-1.1967434169019606
O	0.2388931315509808	-0.9280602055490198	-1.8848141369019609
O	-0.0659108984490191	-0.43868520354901974	-3.1161368469019606
O	-1.262564784449019	0.19296092915098026	-3.3304309969019608
O	1.6759729815509807	-2.16863240554902	1.1958978500980393
O	1.0653016215509807	-1.96609157554902	2.4529493930980393
O	0.28191410155098096	-0.9558559155490197	2.8458362830980395
O	-0.14369948844901903	-0.9564226055490198	4.16999958309804
O	-0.17634883844901905	-2.0813240355490197	4.894526723098039
O	1.044786491550981	-2.71634757554902	4.68470927309804
O	1.400975511550981	-2.77114167554902	3.395563963098039
O	-0.6585216614490191	-2.10768559554902	6.19847228309804
O	-1.340550460449019	-0.9890169555490197	6.734978473098039
O	-2.159593465449019	-1.4490463355490197	7.90434433309804
O	-1.4024019357490192	-2.0975939655490197	8.93810062309804
O	-2.2618022674490192	-2.4168337655490197	10.04492945309804
O	-0.8599106424490192	-3.29729112554902	8.35620283309804
O	-0.021293098449019165	-2.90771210554902	7.194974233098039
O	-1.495128690749019	-13.566330415549018	2.122578713098039
O	-3.1245827384490195	-10.598703215549019	3.7800896530980395
O	-5.857893018449019	-8.01168365554902	3.3361167230980393
O	-4.079908678449019	-4.67613020554902	3.1702779830980394
O	-7.216978908449018	-2.4214771055490196	2.898793223098039
O	-10.13908962844902	-0.6110568735490197	1.2011403760980395
O	-10.799638408449018	2.74230506445098	-0.4778701369019607
O	-11.537224248449018	-0.6134578315490198	-4.555005216901961
O	-9.746275098449019	-2.98275648554902	-2.1885120469019608
O	-6.207982918449019	-4.3714688255490195	-2.0945153869019606
O	-4.68661022844902	-7.58899820554902	-0.8449341769019607
O	-1.1512436294490191	-8.77438257554902	-0.3259063629019606
O	-0.5589949274490191	-11.970543715549018	-2.406571446901961
O	2.704677771550981	-8.46239525554902	-4.64594731690196
O	-0.11432000844901924	-5.99742404554902	-3.955688256901961
O	-3.3843567684490194	-6.67418394554902	-5.771854926901961
O	-6.0751832584490195	-4.04499095554902	-6.365862776901961
O	-9.622481828449018	-5.04840614554902	-7.432784606901961
O	6.427559831550981	5.81231897445098	-7.85780540690196
O	4.706660261550981	2.53714825445098	-6.90263595690196
O	-7.117958128449018	-6.97659952554902	-11.08465584690196
O	-4.097213388449019	-4.63903383554902	-10.927084246901961
O	-0.8097664754490191	-6.2123721055490195	-9.77760294690196
O	1.7335870015509807	-3.9357064255490197	-8.07951572690196
O	4.85385776155098	-4.17304186554902	-5.95832577690196
O	4.260687861550981	-4.68049293554902	-2.2213328369019605
O	5.619193721550982	-1.9960053655490197	0.12602068709803932
O	6.13839132155098	-3.47170165554902	3.5880682830980395
O	5.499032371550982	-0.3970032805490198	5.777181483098039
O	2.198145001550981	0.7478662414509802	4.307081733098039
O	1.425829061550981	4.37361797445098	4.132159683098039
O	3.6896495615509806	7.20042293445098	5.09653053309804
O	1.0311062715509807	8.670487944450981	7.352744633098039
O	0.7381468415509809	5.35767722445098	9.27756012309804
O	4.514810221550981	4.77208030445098	9.27890060309804
O	2.448292391550981	7.53948836445098	13.51648645309804
O	3.6432194215509806	3.98894875445098	14.410517853098039
O	7.463625221550981	4.1294586044509805	13.85248555309804
O	-1.439666251249019	13.39229178445098	1.0493351680980392
O	0.806347341550981	11.28289788445098	3.338736933098039
O	-1.908261306449019	8.66764801445098	3.3934109430980395
O	-1.341192597449019	8.288386634450982	-0.4225595169019607
O	2.482759591550981	7.87220356445098	-0.2534138189019607
O	3.8690815815509807	4.39900354445098	0.5483800440980393
O	6.990745311550981	3.2998334044509803	2.3866972030980396
O	9.337006851550981	0.6466483354509802	1.0666565300980393
O	11.801741951550982	0.9421594484509803	3.928539693098039
O	6.830519231550982	6.0379996744509805	-3.255490876901961
O	3.834412931550981	7.96427199445098	-4.62939605690196
O	0.620769341550981	5.83102458445098	-5.04614031690196
O	-3.1579048984490194	6.4001569444509805	-5.4550788169019615
