31

O	11.127125326001796	-19.815691636124534	-21.916045086820464
O	10.949235710718396	-21.10495885171683	-21.47552647384044
O	11.695598606074133	-22.228841292594954	-21.25800173225846
O	11.457729298819801	-23.51926373292862	-21.533672538177008
O	12.627565789172127	-24.380903516002757	-21.60991490706332
O	12.555671774964381	-22.29977529520976	-20.25231159857901
O	13.756302646266926	-23.13915641986953	-20.287866414196593
O	13.85737256114436	-24.38631710579011	-20.92744238088781
O	14.433121569644946	-25.649629877517746	-20.55227896834271
O	15.775418528791295	-25.816658205192965	-20.350507018663826
O	13.534712839259926	-26.5832677589608	-20.19456671929627
O	12.24893051125862	-26.357107333408013	-20.169524135956156
O	11.618147787028846	-27.44396881786574	-19.76003796415983
O	12.565421501033631	-28.34374630270981	-19.540143244044113
O	13.81872020275353	-27.806667525432673	-19.873576107272523
O	15.141640021650755	-28.112013312711294	-19.801492070144914
O	16.08306990694788	-27.19632845335184	-20.191505341672034
O	10.228079126452014	-27.452010283781767	-19.596955197623195
O	9.569334114203901	-26.220795305699305	-19.80739655782515
O	10.032662575110782	-24.982544700805306	-19.605668076061757
O	9.153592563682174	-23.92818883300135	-19.829554907365914
O	8.08193015188001	-24.065715392426466	-20.619513706577052
O	7.465780053923802	-25.254533032644275	-20.238040997266992
O	8.320109465325833	-26.275750176094654	-20.10018076226475
O	7.230154828719405	-23.003654965133176	-20.902296368990044
O	7.587488777665007	-21.681250841765163	-20.544551370250215
O	6.782656674074084	-20.730150857082982	-21.37973344213821
O	5.361091183513847	-20.897496511141156	-21.262464110006235
O	4.686057852890709	-19.88573759391818	-22.028118689380577
O	5.0596544087881705	-22.207383202793586	-21.77773864159118
O	5.818172525735126	-23.202489076256928	-20.979041185573745
