75

O	2.7039646480943396	-3.511795521056604	-1.322284715162264
O	3.7336295680943397	-4.382400501056604	-0.956779966162264
O	3.6986454580943398	-4.998474341056603	0.25741229983773595
O	4.90719641809434	-4.945061731056604	1.095578852837736
O	5.01856277809434	-3.961151201056604	1.8314574228377358
O	5.54808915809434	-6.133062941056603	1.155772852837736
O	2.56605150809434	-4.907569291056603	1.0082089428377359
O	1.4363799780943398	-4.407270081056604	0.36457845283773604
O	1.4939694480943397	-3.527273041056604	-0.684246697062264
O	0.8180050280943397	-2.285451881056604	-0.28801329116226404
O	-0.035107076905660284	-1.6544246810566037	-1.1212400151622641
O	-0.3635500459056603	-2.718640781056604	-2.388241787162264
O	-1.6042629619056603	-3.264164651056604	-1.876000517162264
O	0.4827979780943398	-3.836352301056604	-2.7927128371622643
O	-0.7354968759056603	-1.7089281410566037	-3.740546967162264
O	-1.7225919419056601	-2.100021481056604	-4.633266397162264
O	-2.0201708119056603	-1.1406935010566037	-5.561945637162264
O	-0.4512490439056603	-0.4366921380566037	-5.750632537162264
O	0.013534583094339747	-0.6324149140566037	-4.075098927162264
O	1.2195593980943396	-0.22161856905660368	-3.391661527162264
O	2.1288119380943398	-1.2498453010566037	-3.5068441471622642
O	1.7457494280943395	-0.1616830180566037	-2.129979457162264
O	5.31086284809434	4.771837748943397	4.544034552837736
O	2.3307974380943395	6.1760350589433965	2.682050402837736
O	1.1266335880943399	2.951054698943396	1.3359144028377359
O	-2.2513581119056605	3.417629638943396	-0.591117977562264
O	-2.29988903190566	7.065346698943396	0.222305325837736
O	-3.4363122219056605	5.6536560789433965	3.621571152837736
O	-6.76391870190566	4.926578978943397	1.909086152837736
O	-9.37855836190566	-9.061172811056604	-4.796439297162264
O	-6.53522497190566	-6.527582451056603	-4.8999394371622635
O	-4.89711833190566	-8.174808881056604	-1.887254237162264
O	-6.0375324019056595	-10.271706161056605	0.976318042837736
O	-4.15852386190566	-13.570978861056604	0.5582027428377359
O	-0.9483863389056604	-13.685418561056604	2.613469032837736
O	-11.83146642190566	-2.975486341056604	-9.275402557162264
O	-9.22663509190566	-1.3427545510566037	-7.020986007162264
O	-8.91616151190566	-3.549410411056604	-3.930868857162264
O	-7.41595217190566	-3.537548061056604	-0.4339576851622641
O	-9.80381285190566	-6.3319424210566035	0.559055972837736
O	-0.29763371090566026	3.3701100689433963	12.026105912837737
O	12.47524707809434	1.8995705589433962	2.282356002837736
O	14.80017297809434	0.6407102469433963	-0.47118953416226406
O	12.81326657809434	-2.785521391056604	3.9479513028377355
O	9.76119007809434	-1.7972876610566038	5.987051412837737
O	6.18817747809434	-2.805848431056604	5.128916582837736
O	5.24198650809434	-6.381724141056604	6.188224452837735
O	-0.8272258709056604	-8.252179181056604	6.8696141928377354
O	-4.58068397190566	-8.644400741056604	7.385591652837736
O	-6.32420240190566	-5.255997691056604	7.137256022837736
O	-2.9335155919056604	-3.540476181056604	6.685881942837735
O	-3.8306377919056604	-0.6086787460566037	9.020453742837736
O	-6.98288042190566	-0.0169835930566037	6.9943815028377365
O	-5.59977102190566	-0.22489498505660369	3.4564299028377357
O	-1.88540799190566	0.7281640709433963	3.5089669428377364
O	-0.9717492389056603	1.2946228689433963	7.184419212837735
O	-0.1021834559056603	4.954543708943397	7.717330012837737
O	-0.9990350189056603	0.2055078399433963	-12.821557787162263
O	-5.68493200190566	-1.6955832810566036	-11.305889787162263
O	-7.93656498190566	-2.943752261056604	-14.129687787162263
O	-3.9328641819056602	9.449115318943395	-4.784415417162265
O	-0.7901453099056603	7.379932158943396	-5.573393697162263
O	0.5884985880943397	5.058692118943396	-2.893219697162264
O	3.5729705980943396	2.796409598943396	-2.482275197162264
O	4.93993239809434	-0.1066087860566037	-0.37964097216226406
O	7.87173742809434	-2.384327091056604	-1.355573555162264
O	10.32854007809434	0.2802773999433963	-0.3326986871622641
O	8.32758291809434	3.549379188943396	-0.758130472162264
O	6.53988187809434	5.744734308943396	-3.347854587162264
O	4.11783239809434	8.584468588943396	-2.482587617162264
O	1.7681260580943396	10.922964738943396	-4.404770237162264
O	-0.6651941399056603	13.641538338943395	-3.278639487162264
O	11.89878777809434	4.011738408943397	-3.241126547162264
O	8.91098167809434	2.702158288943396	-5.122427737162264
O	9.33227111809434	4.296296948943397	-8.541893717162264
