80

O	2.5272527285588238	0.30812164454901947	0.5515979551882355
O	1.7896392485588235	0.17765432294901948	1.7718758751882355
O	0.4873964985588236	0.2134720475490195	1.7862024351882355
O	0.11351402455882365	0.8023867395490195	0.5843198271882355
O	0.8427188985588235	0.6976863755490195	-0.6258908078117644
O	2.1126151085588236	0.25951229554901944	-0.6858597938117644
O	2.874450218558824	-0.37113862045098056	-1.8131032948117645
O	1.6904323785588238	-1.2484020024509805	-2.221471144811764
O	0.8240082185588237	-0.6738440404509805	-3.037603654811764
O	-0.5770539544411764	-0.6443757854509805	-2.9733508648117644
O	-1.0708710704411764	-0.8999012524509805	-1.7071275648117645
O	-0.38262773844117637	-1.7155102924509806	-1.0021287208117644
O	0.9675575285588237	-1.6279398624509807	-1.1306938248117644
O	-0.9768595884411764	-1.9411556924509807	0.24732389318823556
O	-2.1321032614411766	-1.2178481124509806	0.18160269118823558
O	-2.173459461441176	-0.8172374694509805	-1.0861845378117645
O	0.031796953558823615	-2.4864728524509805	1.1199362851882355
O	0.09495930655882356	-2.6391671524509808	2.2294699451882356
O	1.380613128558824	-2.4445786324509804	0.6141176071882355
O	2.560766688558824	-2.3324364724509805	1.2866816651882356
O	2.394440348558824	-2.7037990724509804	2.622816515188236
O	3.364132208558824	-2.2575570424509808	3.514511135188236
O	4.600186948558823	-2.4506081524509806	2.887850745188236
O	4.827171568558824	-1.9497863724509807	1.6114736151882356
O	3.805573538558824	-2.332195872450981	0.7442210011882355
O	5.618026608558823	-2.5659794624509806	3.7648721451882357
O	-1.4397045384411764	-0.3685688664509805	-3.9761737548117644
O	-0.5772654474411764	0.07848084664901947	2.7122119951882357
O	-1.4665112674411764	-0.3479352784509805	3.3499457851882357
O	4.384593188558823	-10.838259202450981	0.17250406018823555
O	4.530000758558824	-7.345545522450981	1.4709813051882354
O	5.846981218558824	-5.511367382450981	-1.6263075048117646
O	5.567672378558823	-5.01540907245098	-5.350529854811764
O	6.894460498558824	-3.442426902450981	-8.526822144811764
O	5.826305258558824	-2.5259142324509805	-12.036623224811764
O	2.5420284285588237	-1.4530642724509806	-10.390514424811764
O	1.5979125185588239	-4.761204782450981	-8.820304894811764
O	2.3049396285588237	-7.32439420245098	-6.115174264811765
O	0.8055346185588236	-7.0904074624509805	-2.695337024811764
O	0.3032037485588236	-9.74902974245098	-0.03745482141176444
O	-0.6855872199411763	-9.619166082450981	3.6116630951882356
O	-6.080385431441177	-6.98677285245098	8.523347265188237
O	-6.096492331441176	-6.349423852450981	4.787879315188236
O	-3.720428791441176	-6.072811252450981	1.9273332751882355
O	-4.169436881441176	-7.94981868245098	-1.2770335148117644
O	-2.8838770214411764	-6.427109412450981	-4.505700594811764
O	-2.814512291441176	-8.35107645245098	-7.7443274348117646
O	-7.058517461441176	2.0506191675490193	-10.629092424811764
O	-6.522684611441176	9.959881357549019	4.509699605188235
O	-6.520796891441177	7.341139327549019	1.7398046651882355
O	-6.105655141441177	3.5572230575490194	2.042017915188236
O	-9.637319341441177	2.3616226775490192	1.0977430551882355
O	-7.3863797714411765	-8.55525013245098	-7.191291984811765
O	-7.809622991441176	-5.55058752245098	-4.893048834811765
O	-8.617369681441177	-5.8522834624509805	-1.1908850248117644
O	-7.254472271441176	-2.837694642450981	0.6504713321882355
O	-7.1837446414411765	-1.8756289024509807	4.282341145188235
O	-4.022481311441177	-2.5934631024509804	6.205561935188236
O	-3.1145540214411764	-0.47890805745098053	9.271088435188236
O	-0.8932509004411764	-2.2226879524509804	11.841832575188237
O	2.4318329185588237	0.6484071675490195	9.303000435188236
O	5.444793838558824	2.1684384775490195	7.607653785188235
O	5.802699098558824	4.18294332754902	4.378484665188235
O	7.144421578558823	7.647583027549019	4.495471185188236
O	10.152342888558822	6.69547260754902	2.359735415188236
O	11.371046388558822	4.16556039754902	4.9229931551882355
O	10.435675588558823	6.51293546754902	7.7435516151882355
O	12.624444388558823	9.33300498754902	6.407495295188236
O	-5.716085721441177	13.69258199754902	1.4887127351882354
O	7.155235768558824	9.42734322754902	-0.04761830381176444
O	6.890312008558824	5.859197257549019	-1.4207775648117644
O	3.1401133185588237	6.4006259375490195	-1.9375597348117646
O	2.3312832685588236	7.766923917549019	1.5584358651882355
O	1.722880138558824	5.43585448754902	4.564809715188235
O	-2.7240199114411765	7.659969207549019	4.080731935188235
O	-2.273320641441176	7.827790477549019	0.30330166418823556
O	-1.6901946784411765	4.76578538754902	-1.7136265348117645
O	-1.0157659834411765	3.448490967549019	-5.192183804811765
O	-3.4578604814411764	5.00469536754902	-7.678135304811764
O	-1.7958970114411765	2.8656158575490194	-10.328297224811763
