78

O	-1.0643437209266498	2.960197338978333	-2.8881390670983333
O	-0.17741299192664983	2.119233068978333	-3.4301730670983335
O	-0.2049463819266497	0.8476448299783332	-2.8418037670983334
O	-0.49003908092664983	0.5850583949783332	-1.5483504570983333
O	-1.1343073919266498	1.5932615689783332	-0.8371569220983333
O	-1.3681909532266499	2.742246218978333	-1.5320607970983333
O	-0.12412387192664975	-0.6131590790216668	-1.0084402120983333
O	-0.3874559819266499	-0.7675110300216668	0.3282379559016667
O	-1.18311572192665	0.1586573202783332	1.0028003829016667
O	-1.5615910039266498	1.2045737989783332	0.3441981829016667
O	-1.3077568929266499	-0.1621556650216668	2.4059991429016665
O	-2.3619346339266496	0.3298541929783332	3.0209616929016665
O	-2.64993359192665	-0.05473539602166677	4.302987482901667
O	-1.9626366129266497	-1.055926511021667	4.927621732901667
O	-1.2517264309266498	-1.7841802710216668	4.090802452901667
O	-0.6077893769266498	-1.122424531021667	3.0512038329016664
O	0.3899719680733502	-1.5742250210216668	-1.6030315870983334
O	-2.32993514192665	-1.4050074810216668	6.194247602901667
O	-9.52425261192665	0.10508546927833322	-14.157558307098332
O	-12.41806546192665	-1.7785503210216669	-2.9676784570983337
O	-10.637871271926649	-4.432758251021666	-5.047335517098333
O	6.854208468073351	-2.344811791021667	-6.870754457098333
O	3.7542641180733503	-4.052848361021667	-5.578812407098333
O	2.48515061807335	-4.0693249810216665	-1.9317785870983333
O	-1.0094356059266498	-5.238676521021667	-0.7855750440983332
O	-1.77531005892665	-5.834187651021667	2.8661270229016664
O	-3.5756563919266497	-8.000402591021667	5.477833522901667
O	-0.11603940192664974	-8.267687681021666	7.142029812901667
O	1.9666353380733501	-9.959586391021666	4.380784082901667
O	5.8931179680733505	1.5706549889783332	11.232046692901667
O	3.2362387280733502	-1.051466851021667	12.119911792901666
O	2.6767346280733504	-1.3115171710216669	8.303437322901667
O	2.36160175807335	2.507198298978333	7.779721582901667
O	-0.6941299009266498	4.094000468978333	6.169842852901667
O	-1.4097381523276498	6.881440268978333	8.656165922901668
O	-4.237619751926649	8.495688988978333	6.603817782901667
O	-2.46154531192665	8.169267488978333	3.2399751229016664
O	-2.6059046019266496	10.999163108978333	0.7064827249016667
O	1.1584286180733503	11.513835008978333	0.9792268429016668
O	2.0631198680733505	8.300185078978334	7.224162652901667
O	4.42529456807335	5.9609429289783336	5.427333272901667
O	4.5677436780733505	2.609217208978333	3.6768049629016666
O	2.8677596980733506	2.743435018978333	0.2667666319016667
O	3.7590328180733508	0.9122222359783333	-3.0095646170983334
O	2.2009238680733505	0.8025991649783333	-6.4551315470983335
O	-0.30411904192664974	-0.8446040410216668	-10.735292407098333
O	-0.7591445399266498	-4.383665001021666	-9.317774567098333
O	-4.52469415192665	-3.538900681021667	-9.301228687098334
O	-3.8619984419266498	-0.5776339060216668	-6.839595797098333
O	-2.09465805792665	-2.8485231710216667	-4.385665917098333
O	-4.89159647192665	-5.359530351021666	-4.720300997098333
O	-7.319899771926649	-2.8190146810216667	-3.2956131270983335
O	-5.476726721926649	-3.0219073210216667	0.03127658020166672
O	-5.16757426192665	-6.823710831021667	0.24319036490166673
O	-8.24049111192665	-7.087932811021666	2.4985691929016665
O	-7.491046661926649	-3.832857611021667	4.258567392901667
O	-7.87462530192665	-0.10064712002166679	3.5936555929016665
O	-10.64373368192665	0.4303432249783332	1.0703947829016667
O	-10.81437660192665	-3.408834301021667	0.6980071139016667
O	-12.124521261926649	-3.696840701021667	4.253562232901667
O	-15.08729806192665	-6.138148191021666	4.349257332901667
O	0.48241359807335016	-9.541778621021667	-2.9384875970983333
O	4.16772523807335	-8.736090001021667	-2.5004773670983336
O	6.447855408073351	-7.683211911021666	-5.326872137098333
O	9.20362223807335	-5.768825021021667	-3.5535429070983335
O	12.09954573807335	-0.4764962950216668	-2.9441812570983337
O	13.42874083807335	5.5758224089783335	-3.5378489070983337
O	-2.12191509192665	14.564321208978333	-7.469690847098333
O	5.419038238073351	7.032034938978334	10.816472092901668
O	6.24289220807335	9.957395108978334	-5.613826987098333
O	2.5397979580733505	10.415092608978334	-6.171650267098333
O	2.50351795807335	5.319340178978334	-6.344432357098333
O	5.367349338073351	5.741751548978334	-3.9023679870983337
O	5.850017948073351	6.171185888978334	-0.14305775549833327
O	8.97899423807335	5.450053578978333	1.9980909629016665
O	9.338656338073351	6.456788588978333	5.640665682901667
O	11.82853733807335	3.777523608978333	6.670610072901667
O	5.09502839807335	-13.525617491021666	-2.5286931870983334
