78

O	-0.19935602733666657	-0.8050248939083333	0.6321338797333338
O	-0.1213968773366666	-0.9901329739083333	-0.7361216492666662
O	0.24030242166333338	-2.116177513908333	-1.1259654442666662
O	-0.43967033133666655	0.07787958909166665	-1.5192817632666662
O	-0.13442181933666653	0.03604874509166661	-2.8399308732666664
O	-0.3120588413366666	1.0409401130916667	-3.7910700532666666
O	-0.9226537953366666	2.1441278760916664	-3.3431592832666666
O	-0.9157850023366666	2.3076609960916667	-1.944065243266666
O	-0.8129701473366666	1.3166175610916666	-1.0144094762666662
O	-1.2228404703366667	1.2376703720916666	0.24331428173333378
O	-0.8855384103366666	0.3188382032916666	1.0975097867333339
O	-1.2483989333366665	0.10856999609166662	2.5138111067333337
O	-0.2665043113366665	-0.20943374390833341	3.4423254167333335
O	-0.5134513393366665	-0.17876486190833335	4.821526376733334
O	-1.6526246113366665	0.37591127501166666	5.321682106733333
O	-1.8573178993366666	0.5002281010916666	7.201247846733334
O	-2.146519608336667	1.2918139970916667	4.437655836733334
O	-1.9443025743366666	1.2160052920916666	3.0499254767333337
O	-11.681702288336666	-1.6254062939083334	-12.021497723266666
O	-11.415995688336666	1.0122037520916667	-9.266542683266666
O	-12.628610888336667	-1.1619671739083333	-0.4426354222666662
O	-11.408026788336667	-4.381207353908334	-2.086845043266666
O	5.526637931663334	-4.633223313908333	-7.189947873266666
O	2.5448839516633335	-5.628712693908334	-5.0373546032666665
O	1.9164314016633335	-4.824545353908333	-1.415271653266666
O	-1.2538478143366665	-5.509860623908334	0.5681219447333338
O	-1.3423682553366665	-5.021976633908333	4.338898496733334
O	-2.8473355483366665	-6.137570223908333	7.608559056733333
O	0.7799401116633333	-6.432186043908334	8.725977256733335
O	1.7592277016633333	-9.037569683908334	6.123812496733334
O	8.165469811663334	2.4659980660916667	9.776733126733335
O	5.429638531663333	0.45810674359166664	11.491473776733335
O	4.238568431663333	-0.5691847919083333	7.9861826967333345
O	4.001409041663333	2.9828892760916665	6.5530042967333335
O	0.7789965716633334	4.571182756091667	5.266658366733334
O	1.0120952516633333	7.667305956091667	7.469870416733333
O	-1.9028860633366667	9.408142926091665	5.749479246733333
O	-0.9038238233366666	8.538146736091665	2.1733468567333336
O	-1.0174747511366666	11.094978976091666	-0.6439871672666663
O	2.7478629516633335	11.080038576091665	-1.0714996262666663
O	4.348192971663334	8.807313686091666	5.337291696733334
O	6.079256681663333	5.960914496091667	3.528471696733334
O	5.584192961663334	2.4074377360916666	2.4378614067333335
O	3.351944091663334	2.1388840160916667	-0.6025500622666662
O	3.5147367016633333	-0.31060658390833334	-3.5236752432666663
O	1.3610392816633334	-0.7874832439083332	-6.618473763266667
O	-1.9674226843366664	-2.9328389039083334	-9.970473323266665
O	-2.5121175483366667	-6.104543583908334	-7.912550153266666
O	-6.124112668336666	-4.882054543908334	-7.379167813266666
O	-4.874652498336666	-1.5619176239083332	-5.764276983266666
O	-2.8507333383366666	-3.5014377539083332	-3.2017302132666665
O	-5.864186618336667	-5.8142396339083335	-2.668525973266666
O	-7.7380354383366665	-2.7617169639083334	-1.3268721032666662
O	-5.415765728336666	-2.539774963908333	1.7009672867333339
O	-5.322607178336666	-6.269652113908333	2.7211830667333334
O	-7.997333388336667	-5.704724753908334	5.372536936733334
O	-6.725375578336667	-2.1922256639083333	6.2228232167333335
O	-7.028121398336667	1.3345227250916667	4.852703086733333
O	-10.178079818336666	1.6206219660916668	2.7836945267333335
O	-10.497769398336667	-2.181163413908333	3.1866901467333335
O	-11.175980388336667	-1.6405588839083332	6.947628446733334
O	-14.251421088336667	-3.629222813908333	7.963111176733334
O	-0.6553237383366666	-10.188257623908335	-0.8742044842666663
O	3.100438081663333	-9.714928123908335	-1.216334263266666
O	4.916858881663334	-9.520478473908334	-4.543674013266666
O	8.029310331663334	-7.562774233908334	-3.6223762632666663
O	11.651172711663333	-2.779688043908333	-4.694251633266666
O	13.358241111663334	2.8765955960916667	-6.5685116532666665
O	-1.8205224663366666	13.035748876091667	-9.812717263266665
O	8.142202111663334	7.959156096091666	8.235841126733334
O	6.402367391663333	7.681051456091667	-8.238183573266666
O	2.7270631016633335	8.495454876091665	-8.388761323266666
O	2.0688053016633337	3.4889873760916665	-7.503249243266667
O	5.308304761663333	4.047919396091666	-5.666781973266667
O	6.533599371663334	5.033952156091667	-2.2214191732666664
O	9.829967911663333	4.316486436091666	-0.5013430192666662
O	10.893055711663333	5.860271706091667	2.803574346733334
O	13.299721711663334	3.1993857660916665	4.069189106733334
