37

O	13.29099910719222	39.860182587032654	28.110576770817318
O	13.180628160750986	41.354410006236414	28.241070472375615
O	14.600474464514265	41.77520085481552	28.50369532979223
O	15.392401378166301	40.49696902315572	28.4496947409457
O	14.614044574768313	39.67398633720809	27.57639233448976
O	15.030277228774052	38.31238313558395	27.42156960366345
O	15.409564411376794	37.989889234101426	26.02175839873174
O	15.8558905884946	36.74613514497016	25.63660204610656
O	16.890919420557438	36.24431065382232	24.900247125960483
O	17.981587431936653	35.744212604057296	25.550700240664515
O	19.26995040554007	35.600747810097666	25.15414538971376
O	17.156155708536538	36.26242080260815	23.535634149920714
O	18.35961276686579	35.805326531544985	23.004387763653675
O	19.42525867328992	35.75569147507436	23.821563642811284
O	20.67895049730185	36.019690425265686	23.265795469182535
O	20.956725692599612	36.512912810583124	21.983426729734713
O	21.124995991816125	37.865726532040014	21.926087558883438
O	21.110134968456638	35.95873082320032	20.790273891341247
O	21.86336166707765	36.595197921836004	19.793096422330205
O	21.969552592321527	37.953713658553546	19.808960528307722
O	22.025369733287953	38.52388487668993	18.493869730733095
O	21.210035426560662	38.524025384212756	20.725574231528494
O	20.30424959848335	39.602642807119445	20.85114151725306
O	19.168098489322848	39.612470596278	21.779619829558516
O	19.176403809708397	38.89451431161353	23.000518398047
O	18.11187428168932	40.45255025189859	21.778362514206847
O	16.923055365220407	40.06615198013051	22.47483888966096
O	17.141651323545744	39.724081982885785	23.770136042904078
O	18.312635211379394	39.0950345291633	24.080878307290163
O	18.909172451882863	39.09894127941097	25.670318013212615
O	20.364827647912367	38.793750397685244	25.693951780733126
O	18.499314945773115	38.23632277777726	26.775489917427702
O	18.411358093448683	40.65918097829793	26.357085313732593
O	18.82780702046801	41.755375074176094	25.50513169218611
O	19.4592295584031	42.78926263624349	26.383976213679496
O	17.756548924358377	42.44126292892127	24.72076501167217
O	19.83476816167778	41.208831139213444	24.57718733711438
